                                  MODFLOW-2005     
      U.S. GEOLOGICAL SURVEY MODULAR FINITE-DIFFERENCE GROUND-WATER FLOW MODEL
                            VERSION 1.12.00 2/3/2017

 LIST FILE: modelface.list
                         UNIT    2

 OPENING modelface.dis
 FILE TYPE:DIS   UNIT   11   STATUS:OLD    
 FORMAT:FORMATTED              ACCESS:SEQUENTIAL          

 OPENING modelface.bas
 FILE TYPE:BAS6   UNIT   13   STATUS:OLD    
 FORMAT:FORMATTED              ACCESS:SEQUENTIAL          

 OPENING modelface.lpf
 FILE TYPE:LPF   UNIT   15   STATUS:OLD    
 FORMAT:FORMATTED              ACCESS:SEQUENTIAL          

 OPENING modelface.rch
 FILE TYPE:RCH   UNIT   19   STATUS:OLD    
 FORMAT:FORMATTED              ACCESS:SEQUENTIAL          

 OPENING modelface.oc
 FILE TYPE:OC   UNIT   14   STATUS:OLD    
 FORMAT:FORMATTED              ACCESS:SEQUENTIAL          

 OPENING modelface.pcg
 FILE TYPE:PCG   UNIT   27   STATUS:OLD    
 FORMAT:FORMATTED              ACCESS:SEQUENTIAL          

 OPENING modelface.swi2
 FILE TYPE:SWI2   UNIT   29   STATUS:OLD    
 FORMAT:FORMATTED              ACCESS:SEQUENTIAL          

 OPENING modelface.hob
 FILE TYPE:HOB   UNIT   39   STATUS:OLD    
 FORMAT:FORMATTED              ACCESS:SEQUENTIAL          

 OPENING modelface.hds
 FILE TYPE:DATA(BINARY)   UNIT   51   STATUS:REPLACE
 FORMAT:BINARY                 ACCESS:SEQUENTIAL          

 OPENING modelface.zta
 FILE TYPE:DATA(BINARY)   UNIT   55   STATUS:REPLACE
 FORMAT:BINARY                 ACCESS:SEQUENTIAL          

 OPENING modelface.hob.out
 FILE TYPE:DATA   UNIT    7   STATUS:UNKNOWN
 FORMAT:FORMATTED              ACCESS:SEQUENTIAL          

 BAS -- BASIC PACKAGE, VERSION 7, 5/2/2005 INPUT READ FROM UNIT   13
 
 MODFLOW was compiled using mixed precision
 Precision of REAL variables:           6
 Precision of DOUBLE PRECISION variables:          15

 DISCRETIZATION INPUT DATA READ FROM UNIT   11
 # DIS package for  MODFLOW-2005, generated by Flopy.
    1 LAYERS       100 ROWS       200 COLUMNS
    1 STRESS PERIOD(S) IN SIMULATION
 MODEL TIME UNIT IS DAYS
 MODEL LENGTH UNIT IS METERS
  Confining bed flag for each layer:
   0

                     DELR =   169.000    

                     DELC =   165.000    



           TOP ELEVATION OF LAYER 1
 READING ON UNIT   11 WITH FORMAT: (200E15.6)          

   MODEL LAYER BOTTOM EL. =  -1250.00     FOR LAYER   1


 STRESS PERIOD     LENGTH       TIME STEPS     MULTIPLIER FOR DELT    SS FLAG
 ----------------------------------------------------------------------------
        1         146100.0        400                    1.000         SS

 STEADY-STATE SIMULATION



 
 # BAS6 package for  MODFLOW-2005, generated by Flopy.                           
 THE FREE FORMAT OPTION HAS BEEN SELECTED



                     BOUNDARY ARRAY FOR LAYER   1
 READING ON UNIT   13 WITH FORMAT: (200I10)            

 AQUIFER HEAD WILL BE SET TO  -999.99     AT ALL NO-FLOW NODES (IBOUND=0).



                       INITIAL HEAD FOR LAYER   1
 READING ON UNIT   13 WITH FORMAT: (200E15.6)          
 # OC package for  MODFLOW-2005, generated by Flopy.

 OUTPUT CONTROL IS SPECIFIED ONLY AT TIME STEPS FOR WHICH OUTPUT IS DESIRED
 COMPACT CELL-BY-CELL BUDGET FILES WILL BE WRITTEN
 AUXILIARY DATA WILL BE SAVED IN CELL-BY-CELL BUDGET FILES
 HEAD PRINT FORMAT CODE IS   0    DRAWDOWN PRINT FORMAT CODE IS   0
 HEADS WILL BE SAVED ON UNIT   51    DRAWDOWNS WILL BE SAVED ON UNIT    0

 LPF -- LAYER-PROPERTY FLOW PACKAGE, VERSION 7, 5/2/2005
         INPUT READ FROM UNIT   15
 # LPF package for  MODFLOW-2005, generated by Flopy.
 HEAD AT CELLS THAT CONVERT TO DRY= -1.00000E+30
 No named parameters

   LAYER FLAGS:
 LAYER       LAYTYP        LAYAVG         CHANI        LAYVKA        LAYWET
 ---------------------------------------------------------------------------
    1             0             0     1.000E+00             0             0

   INTERPRETATION OF LAYER FLAGS:
                        INTERBLOCK     HORIZONTAL    DATA IN
         LAYER TYPE   TRANSMISSIVITY   ANISOTROPY   ARRAY VKA   WETTABILITY
 LAYER      (LAYTYP)      (LAYAVG)       (CHANI)      (LAYVKA)      (LAYWET)
 ---------------------------------------------------------------------------
    1      CONFINED      HARMONIC     1.000E+00    VERTICAL K  NON-WETTABLE

 WETTING CAPABILITY IS NOT ACTIVE IN ANY LAYER



              HYD. COND. ALONG ROWS FOR LAYER   1
 READING ON UNIT   15 WITH FORMAT: (200E15.6)          

      VERTICAL HYD. COND. =   10.0000     FOR LAYER   1

 RCH -- RECHARGE PACKAGE, VERSION 7, 5/2/2005 INPUT READ FROM UNIT   19
 # RCH package for  MODFLOW-2005, generated by Flopy.
 No named parameters
 OPTION 3 -- RECHARGE TO HIGHEST ACTIVE NODE IN EACH VERTICAL COLUMN


     0 Recharge parameters

 PCG -- CONJUGATE-GRADIENT SOLUTION PACKAGE, VERSION 7, 5/2/2005
 # PCG package for  MODFLOW-2005, generated by Flopy.
 MAXIMUM OF    100 CALLS OF SOLUTION ROUTINE
 MAXIMUM OF     50 INTERNAL ITERATIONS PER CALL TO SOLUTION ROUTINE
 MATRIX PRECONDITIONING TYPE :    1



                                    SOLUTION BY THE CONJUGATE-GRADIENT METHOD
                                   -------------------------------------------
                    MAXIMUM NUMBER OF CALLS TO PCG ROUTINE =      100
                        MAXIMUM ITERATIONS PER CALL TO PCG =       50
                               MATRIX PRECONDITIONING TYPE =        1
        RELAXATION FACTOR (ONLY USED WITH PRECOND. TYPE 1) =    0.10000E+01
 PARAMETER OF POLYNOMIAL PRECOND. = 2 (2) OR IS CALCULATED :        0
                         HEAD CHANGE CRITERION FOR CLOSURE =    0.10000E-05
                     RESIDUAL CHANGE CRITERION FOR CLOSURE =    0.30000E-02
            PCG HEAD AND RESIDUAL CHANGE PRINTOUT INTERVAL =      999
     PRINTING FROM SOLVER IS LIMITED(1) OR SUPPRESSED (>1) =        3
                            STEADY-STATE DAMPING PARAMETER =    0.10000E+01
                               TRANSIENT DAMPING PARAMETER =    0.10000E+01


 SWI2 -- SWI PACKAGE, VERSION 2.0.0, 07/22/2013
 --------------------------------------------------
 SWI2 INPUT READ FROM UNIT 29


 # SWI2 package for  MODFLOW-2005, generated by Flopy.
 # Dataset 1


 SWI2 DATASET 1
 ----------------------------------------------------
 NUMBER OF SURFACES (NSRF):                         1
 TOTAL NUMBER OF ZONES:                             2
 DENSITY DISTRIBUTION OPTION (ISTRAT):              1
   VARIABLE DENSITY FLOW -- ISTRAT = 0
   STRATIFIED FLOW       -- ISTRAT = 1
 NUMBER OF SWI OBSERVATIONS (NOBS):                 0
 ZETA OUTPUT FILE UNIT NUMBER (ISWIZT):            55
 BUDGET OUTPUT FILE UNIT NUMBER (ISWICB):           0
 OBSERVATION OUTPUT FILE UNIT NUMBER (ISWIOBS):     0
 ----------------------------------------------------
 # Dataset 2a


 SWI2 DATASET 2A
 ----------------------------------------------------
 SOLVER (NSOLVER):                                  1
   SOLVER =                      DIRECT SOLVER (DE4)
 SOLVER PRINTOUT INTERVAL (IPRSOL):               999
 SOLVER OUTPUT FLAG (MUTSOL):                       3
   0 = PRINTING EVERY ITERATION
   1 = LIMITED (TOTAL NUMBER OF ITERATIONS)
   2 = NO PRINTING
   3 = ONLY IF CONVERGENCE FAILS
 ----------------------------------------------------
 # Dataset 3a


 SWI2 DATASET 3A
 ----------------------------------------------------
 MAXIMUM TOE SURFACE SLOPE (TOESLOPE):      0.500E-02
 MAXIMUM TIP SURFACE SLOPE (TIPSLOPE):      0.500E-02
 EXCESS SURFACE SLOPE FRACTION (ALPHA):     0.100    
 MINIMUM ZONE THICKNESS FRACTION (BETA):    0.100    
 ----------------------------------------------------



                             NUZONE
 READING ON UNIT   29 WITH FORMAT: (2E15.6)            



                   ZETA SURFACE  1  FOR LAYER   1
 READING ON UNIT   29 WITH FORMAT: (200E15.6)          

                      SSZ =  0.200000     FOR LAYER   1



                            IZONENR FOR LAYER   1
 READING ON UNIT   29 WITH FORMAT: (200I10)            

 OBS2BAS7 -- HEAD OBSERVATIONS, VERSION 2.0, 2/28/2006
 INPUT READ FROM UNIT  39
 # HOB package for  MODFLOW-2005, generated by Flopy.

 NUMBER OF HEADS....................................:   64
   NUMBER OF MULTILAYER HEADS.......................:    0
   MAXIMUM NUMBER OF LAYERS FOR MULTILAYER HEADS....:    0
 HEAD OBSERVATIONS WILL BE SAVED ON UNIT............:    7
 SIMULATED EQUIVALENT HEAD AT DRY CELLS WILL BE:   -999.000    

 OBSERVED HEAD DATA -- TIME OFFSETS ARE MULTIPLIED BY:   1.0000    

                    REFER.
       OBSERVATION  STRESS    TIME
  OBS#    NAME      PERIOD   OFFSET    OBSERVATION
     1 Obs_0            1    0.000       5.500    
 Observation within a steady-state time step has been moved to the end of the time step.
     2 Obs_1            1    0.000      0.2000    
 Observation within a steady-state time step has been moved to the end of the time step.
     3 Obs_2            1    0.000      0.4000    
 Observation within a steady-state time step has been moved to the end of the time step.
     4 Obs_3            1    0.000      0.3000    
 Observation within a steady-state time step has been moved to the end of the time step.
     5 Obs_4            1    0.000      0.6000    
 Observation within a steady-state time step has been moved to the end of the time step.
     6 Obs_5            1    0.000       2.300    
 Observation within a steady-state time step has been moved to the end of the time step.
     7 Obs_6            1    0.000       2.600    
 Observation within a steady-state time step has been moved to the end of the time step.
     8 Obs_7            1    0.000       3.500    
 Observation within a steady-state time step has been moved to the end of the time step.
     9 Obs_8            1    0.000       1.200    
 Observation within a steady-state time step has been moved to the end of the time step.
    10 Obs_9            1    0.000       3.600    
 Observation within a steady-state time step has been moved to the end of the time step.
    11 Obs_10           1    0.000       1.500    
 Observation within a steady-state time step has been moved to the end of the time step.
    12 Obs_11           1    0.000       1.900    
 Observation within a steady-state time step has been moved to the end of the time step.
    13 Obs_12           1    0.000       1.300    
 Observation within a steady-state time step has been moved to the end of the time step.
    14 Obs_13           1    0.000      0.9000    
 Observation within a steady-state time step has been moved to the end of the time step.
    15 Obs_14           1    0.000       44.70    
 Observation within a steady-state time step has been moved to the end of the time step.
    16 Obs_15           1    0.000       2.600    
 Observation within a steady-state time step has been moved to the end of the time step.
    17 Obs_16           1    0.000       1.700    
 Observation within a steady-state time step has been moved to the end of the time step.
    18 Obs_17           1    0.000       3.000    
 Observation within a steady-state time step has been moved to the end of the time step.
    19 Obs_18           1    0.000       1.800    
 Observation within a steady-state time step has been moved to the end of the time step.
    20 Obs_19           1    0.000       5.900    
 Observation within a steady-state time step has been moved to the end of the time step.
    21 Obs_20           1    0.000       19.20    
 Observation within a steady-state time step has been moved to the end of the time step.
    22 Obs_21           1    0.000       8.000    
 Observation within a steady-state time step has been moved to the end of the time step.
    23 Obs_22           1    0.000       8.200    
 Observation within a steady-state time step has been moved to the end of the time step.
    24 Obs_23           1    0.000       5.750    
 Observation within a steady-state time step has been moved to the end of the time step.
    25 Obs_24           1    0.000       34.20    
 Observation within a steady-state time step has been moved to the end of the time step.
    26 Obs_25           1    0.000       3.200    
 Observation within a steady-state time step has been moved to the end of the time step.
    27 Obs_26           1    0.000       16.50    
 Observation within a steady-state time step has been moved to the end of the time step.
    28 Obs_27           1    0.000       25.40    
 Observation within a steady-state time step has been moved to the end of the time step.
    29 Obs_28           1    0.000       1.800    
 Observation within a steady-state time step has been moved to the end of the time step.
    30 Obs_29           1    0.000       8.800    
 Observation within a steady-state time step has been moved to the end of the time step.
    31 Obs_30           1    0.000      0.8500    
 Observation within a steady-state time step has been moved to the end of the time step.
    32 Obs_31           1    0.000      0.9000    
 Observation within a steady-state time step has been moved to the end of the time step.
    33 Obs_32           1    0.000      0.6000    
 Observation within a steady-state time step has been moved to the end of the time step.
    34 Obs_33           1    0.000       20.30    
 Observation within a steady-state time step has been moved to the end of the time step.
    35 Obs_34           1    0.000       1.800    
 Observation within a steady-state time step has been moved to the end of the time step.
    36 Obs_35           1    0.000       1.933    
 Observation within a steady-state time step has been moved to the end of the time step.
    37 Obs_36           1    0.000      0.3000    
 Observation within a steady-state time step has been moved to the end of the time step.
    38 Obs_37           1    0.000      0.5000    
 Observation within a steady-state time step has been moved to the end of the time step.
    39 Obs_38           1    0.000       1.000    
 Observation within a steady-state time step has been moved to the end of the time step.
    40 Obs_39           1    0.000       62.50    
 Observation within a steady-state time step has been moved to the end of the time step.
    41 Obs_40           1    0.000       15.80    
 Observation within a steady-state time step has been moved to the end of the time step.
    42 Obs_41           1    0.000       1.200    
 Observation within a steady-state time step has been moved to the end of the time step.
    43 Obs_42           1    0.000       7.300    
 Observation within a steady-state time step has been moved to the end of the time step.
    44 Obs_43           1    0.000       7.300    
 Observation within a steady-state time step has been moved to the end of the time step.
    45 Obs_44           1    0.000       9.800    
 Observation within a steady-state time step has been moved to the end of the time step.
    46 Obs_45           1    0.000       16.47    
 Observation within a steady-state time step has been moved to the end of the time step.
    47 Obs_46           1    0.000       1.200    
 Observation within a steady-state time step has been moved to the end of the time step.
    48 Obs_47           1    0.000       3.000    
 Observation within a steady-state time step has been moved to the end of the time step.
    49 Obs_48           1    0.000       6.650    
 Observation within a steady-state time step has been moved to the end of the time step.
    50 Obs_49           1    0.000       2.700    
 Observation within a steady-state time step has been moved to the end of the time step.
    51 Obs_50           1    0.000       6.100    
 Observation within a steady-state time step has been moved to the end of the time step.
    52 Obs_51           1    0.000      0.1000    
 Observation within a steady-state time step has been moved to the end of the time step.
    53 Obs_52           1    0.000       8.100    
 Observation within a steady-state time step has been moved to the end of the time step.
    54 Obs_53           1    0.000       8.200    
 Observation within a steady-state time step has been moved to the end of the time step.
    55 Obs_54           1    0.000       4.300    
 Observation within a steady-state time step has been moved to the end of the time step.
    56 Obs_55           1    0.000       5.567    
 Observation within a steady-state time step has been moved to the end of the time step.
    57 Obs_56           1    0.000       5.500    
 Observation within a steady-state time step has been moved to the end of the time step.
    58 Obs_57           1    0.000       7.300    
 Observation within a steady-state time step has been moved to the end of the time step.
    59 Obs_58           1    0.000       6.000    
 Observation within a steady-state time step has been moved to the end of the time step.
    60 Obs_59           1    0.000       2.700    
 Observation within a steady-state time step has been moved to the end of the time step.
    61 Obs_60           1    0.000       5.300    
 Observation within a steady-state time step has been moved to the end of the time step.
    62 Obs_61           1    0.000       3.100    
 Observation within a steady-state time step has been moved to the end of the time step.
    63 Obs_62           1    0.000       3.000    
 Observation within a steady-state time step has been moved to the end of the time step.
    64 Obs_63           1    0.000       5.700    
 Observation within a steady-state time step has been moved to the end of the time step.

                                                     HEAD CHANGE
                                                      REFERENCE
        OBSERVATION                   ROW     COL    OBSERVATION
  OBS#     NAME       LAY  ROW  COL  OFFSET  OFFSET   (IF > 0)
     1  Obs_0           1   55   22   0.000   0.000        0
     2  Obs_1           1   78   50   0.000   0.000        0
     3  Obs_2           1   81   52   0.000   0.000        0
     4  Obs_3           1   86   52   0.000   0.000        0
     5  Obs_4           1   85   53   0.000   0.000        0
     6  Obs_5           1   71   55   0.000   0.000        0
     7  Obs_6           1   74   55   0.000   0.000        0
     8  Obs_7           1   70   56   0.000   0.000        0
     9  Obs_8           1   77   57   0.000   0.000        0
    10  Obs_9           1   70   59   0.000   0.000        0
    11  Obs_10          1   76   60   0.000   0.000        0
    12  Obs_11          1   79   69   0.000   0.000        0
    13  Obs_12          1   72   71   0.000   0.000        0
    14  Obs_13          1   79   71   0.000   0.000        0
    15  Obs_14          1   64   72   0.000   0.000        0
    16  Obs_15          1   79   72   0.000   0.000        0
    17  Obs_16          1   79   73   0.000   0.000        0
    18  Obs_17          1   63   75   0.000   0.000        0
    19  Obs_18          1   78   75   0.000   0.000        0
    20  Obs_19          1   56   77   0.000   0.000        0
    21  Obs_20          1   60   77   0.000   0.000        0
    22  Obs_21          1   54   78   0.000   0.000        0
    23  Obs_22          1   58   78   0.000   0.000        0
    24  Obs_23          1   59   78   0.000   0.000        0
    25  Obs_24          1   54   79   0.000   0.000        0
    26  Obs_25          1   60   79   0.000   0.000        0
    27  Obs_26          1   52   80   0.000   0.000        0
    28  Obs_27          1   57   80   0.000   0.000        0
    29  Obs_28          1   60   80   0.000   0.000        0
    30  Obs_29          1   59   81   0.000   0.000        0
    31  Obs_30          1   64   81   0.000   0.000        0
    32  Obs_31          1   65   81   0.000   0.000        0
    33  Obs_32          1   84   81   0.000   0.000        0
    34  Obs_33          1   56   82   0.000   0.000        0
    35  Obs_34          1   62   82   0.000   0.000        0
    36  Obs_35          1   64   82   0.000   0.000        0
    37  Obs_36          1   68   85   0.000   0.000        0
    38  Obs_37          1   76   88   0.000   0.000        0
    39  Obs_38          1   63   89   0.000   0.000        0
    40  Obs_39          1   36   96   0.000   0.000        0
    41  Obs_40          1   51   97   0.000   0.000        0
    42  Obs_41          1   29   98   0.000   0.000        0
    43  Obs_42          1   30   98   0.000   0.000        0
    44  Obs_43          1   31   98   0.000   0.000        0
    45  Obs_44          1   32   99   0.000   0.000        0
    46  Obs_45          1   33   99   0.000   0.000        0
    47  Obs_46          1   27  100   0.000   0.000        0
    48  Obs_47          1   29  101   0.000   0.000        0
    49  Obs_48          1   34  107   0.000   0.000        0
    50  Obs_49          1   42  110   0.000   0.000        0
    51  Obs_50          1   41  112   0.000   0.000        0
    52  Obs_51          1   34  114   0.000   0.000        0
    53  Obs_52          1   17  122   0.000   0.000        0
    54  Obs_53          1   17  123   0.000   0.000        0
    55  Obs_54          1   26  127   0.000   0.000        0
    56  Obs_55          1   27  127   0.000   0.000        0
    57  Obs_56          1   27  128   0.000   0.000        0
    58  Obs_57          1   36  133   0.000   0.000        0
    59  Obs_58          1   37  133   0.000   0.000        0
    60  Obs_59          1   19  169   0.000   0.000        0
    61  Obs_60          1   30  174   0.000   0.000        0
    62  Obs_61          1   16  186   0.000   0.000        0
    63  Obs_62          1   15  187   0.000   0.000        0
    64  Obs_63          1   24  188   0.000   0.000        0
1
                            STRESS PERIOD NO.    1, LENGTH =   146100.0    
                            -----------------------------------------------

                              NUMBER OF TIME STEPS =   400

                               MULTIPLIER FOR DELT =     1.000

                            INITIAL TIME STEP SIZE =   365.2500    



                           RECHARGE
 READING ON UNIT   19 WITH FORMAT: (200E15.6)          
 
 SOLVING FOR HEAD 

 NO OUTPUT CONTROL FOR STRESS PERIOD    1   TIME STEP    1
 SOLVING FOR ZETA FOR LAYER     1 ZONE     2

    2487 UPPER PART EQS.      2489 LOWER PART EQS.    BAND WIDTH + 1 =   77
 STRESS PERIOD=  1 TIMESTEP=  1 LAYER=  1 ZONE=  2 ACTIVE CELLS= 4976 NUMBER OF EQUATIONS=    4976
 
 SOLVING FOR HEAD 

 NO OUTPUT CONTROL FOR STRESS PERIOD    1   TIME STEP    2
 SOLVING FOR ZETA FOR LAYER     1 ZONE     2

    2673 UPPER PART EQS.      2674 LOWER PART EQS.    BAND WIDTH + 1 =   79
 STRESS PERIOD=  1 TIMESTEP=  2 LAYER=  1 ZONE=  2 ACTIVE CELLS= 5347 NUMBER OF EQUATIONS=    5347
 
 SOLVING FOR HEAD 

 NO OUTPUT CONTROL FOR STRESS PERIOD    1   TIME STEP    3
 SOLVING FOR ZETA FOR LAYER     1 ZONE     2

    1786 UPPER PART EQS.      1774 LOWER PART EQS.    BAND WIDTH + 1 =   66
 STRESS PERIOD=  1 TIMESTEP=  3 LAYER=  1 ZONE=  2 ACTIVE CELLS= 3560 NUMBER OF EQUATIONS=    3560
 
 SOLVING FOR HEAD 

 NO OUTPUT CONTROL FOR STRESS PERIOD    1   TIME STEP    4
 SOLVING FOR ZETA FOR LAYER     1 ZONE     2

    1969 UPPER PART EQS.      1971 LOWER PART EQS.    BAND WIDTH + 1 =   68
 STRESS PERIOD=  1 TIMESTEP=  4 LAYER=  1 ZONE=  2 ACTIVE CELLS= 3940 NUMBER OF EQUATIONS=    3940
 
 SOLVING FOR HEAD 

 NO OUTPUT CONTROL FOR STRESS PERIOD    1   TIME STEP    5
 SOLVING FOR ZETA FOR LAYER     1 ZONE     2

    2208 UPPER PART EQS.      2173 LOWER PART EQS.    BAND WIDTH + 1 =   71
 STRESS PERIOD=  1 TIMESTEP=  5 LAYER=  1 ZONE=  2 ACTIVE CELLS= 4381 NUMBER OF EQUATIONS=    4381
 
 SOLVING FOR HEAD 

 NO OUTPUT CONTROL FOR STRESS PERIOD    1   TIME STEP    6
 SOLVING FOR ZETA FOR LAYER     1 ZONE     2

    2407 UPPER PART EQS.      2440 LOWER PART EQS.    BAND WIDTH + 1 =   81
 STRESS PERIOD=  1 TIMESTEP=  6 LAYER=  1 ZONE=  2 ACTIVE CELLS= 4847 NUMBER OF EQUATIONS=    4847
 
 SOLVING FOR HEAD 

 NO OUTPUT CONTROL FOR STRESS PERIOD    1   TIME STEP    7
 SOLVING FOR ZETA FOR LAYER     1 ZONE     2

    2478 UPPER PART EQS.      2445 LOWER PART EQS.    BAND WIDTH + 1 =   85
 STRESS PERIOD=  1 TIMESTEP=  7 LAYER=  1 ZONE=  2 ACTIVE CELLS= 4923 NUMBER OF EQUATIONS=    4923
 
 SOLVING FOR HEAD 

 NO OUTPUT CONTROL FOR STRESS PERIOD    1   TIME STEP    8
 SOLVING FOR ZETA FOR LAYER     1 ZONE     2

    2326 UPPER PART EQS.      2342 LOWER PART EQS.    BAND WIDTH + 1 =   92
 STRESS PERIOD=  1 TIMESTEP=  8 LAYER=  1 ZONE=  2 ACTIVE CELLS= 4668 NUMBER OF EQUATIONS=    4668
 
 SOLVING FOR HEAD 

 NO OUTPUT CONTROL FOR STRESS PERIOD    1   TIME STEP    9
 SOLVING FOR ZETA FOR LAYER     1 ZONE     2

    2301 UPPER PART EQS.      2289 LOWER PART EQS.    BAND WIDTH + 1 =  107
 INSUFFICIENT MEMORY FOR DE4 SOLVER:
 MXBW MUST BE AT LEAST  107
 
 SOLVING FOR HEAD 

 NO OUTPUT CONTROL FOR STRESS PERIOD    1   TIME STEP   10
 SOLVING FOR ZETA FOR LAYER     1 ZONE     2

    2751 UPPER PART EQS.      2742 LOWER PART EQS.    BAND WIDTH + 1 =   82
 STRESS PERIOD=  1 TIMESTEP= 10 LAYER=  1 ZONE=  2 ACTIVE CELLS= 5493 NUMBER OF EQUATIONS=    5493
 
 SOLVING FOR HEAD 

 NO OUTPUT CONTROL FOR STRESS PERIOD    1   TIME STEP   11
 SOLVING FOR ZETA FOR LAYER     1 ZONE     2

    1898 UPPER PART EQS.      1913 LOWER PART EQS.    BAND WIDTH + 1 =   79
 STRESS PERIOD=  1 TIMESTEP= 11 LAYER=  1 ZONE=  2 ACTIVE CELLS= 3811 NUMBER OF EQUATIONS=    3811
 
 SOLVING FOR HEAD 

 NO OUTPUT CONTROL FOR STRESS PERIOD    1   TIME STEP   12
 SOLVING FOR ZETA FOR LAYER     1 ZONE     2

    2008 UPPER PART EQS.      2005 LOWER PART EQS.    BAND WIDTH + 1 =   86
 STRESS PERIOD=  1 TIMESTEP= 12 LAYER=  1 ZONE=  2 ACTIVE CELLS= 4013 NUMBER OF EQUATIONS=    4013
 
 SOLVING FOR HEAD 

 NO OUTPUT CONTROL FOR STRESS PERIOD    1   TIME STEP   13
 SOLVING FOR ZETA FOR LAYER     1 ZONE     2

    2077 UPPER PART EQS.      2070 LOWER PART EQS.    BAND WIDTH + 1 =   87
 STRESS PERIOD=  1 TIMESTEP= 13 LAYER=  1 ZONE=  2 ACTIVE CELLS= 4147 NUMBER OF EQUATIONS=    4147
 
 SOLVING FOR HEAD 

 NO OUTPUT CONTROL FOR STRESS PERIOD    1   TIME STEP   14
 SOLVING FOR ZETA FOR LAYER     1 ZONE     2

    2106 UPPER PART EQS.      2115 LOWER PART EQS.    BAND WIDTH + 1 =   97
 STRESS PERIOD=  1 TIMESTEP= 14 LAYER=  1 ZONE=  2 ACTIVE CELLS= 4221 NUMBER OF EQUATIONS=    4221
 
 SOLVING FOR HEAD 

 NO OUTPUT CONTROL FOR STRESS PERIOD    1   TIME STEP   15
 SOLVING FOR ZETA FOR LAYER     1 ZONE     2

    2061 UPPER PART EQS.      1994 LOWER PART EQS.    BAND WIDTH + 1 =  106
 INSUFFICIENT MEMORY FOR DE4 SOLVER:
 MXBW MUST BE AT LEAST  106
 
 SOLVING FOR HEAD 

 NO OUTPUT CONTROL FOR STRESS PERIOD    1   TIME STEP   16
 SOLVING FOR ZETA FOR LAYER     1 ZONE     2

    2429 UPPER PART EQS.      2430 LOWER PART EQS.    BAND WIDTH + 1 =   81
 STRESS PERIOD=  1 TIMESTEP= 16 LAYER=  1 ZONE=  2 ACTIVE CELLS= 4859 NUMBER OF EQUATIONS=    4859
 
 SOLVING FOR HEAD 

 NO OUTPUT CONTROL FOR STRESS PERIOD    1   TIME STEP   17
 SOLVING FOR ZETA FOR LAYER     1 ZONE     2

    2009 UPPER PART EQS.      2061 LOWER PART EQS.    BAND WIDTH + 1 =   94
 STRESS PERIOD=  1 TIMESTEP= 17 LAYER=  1 ZONE=  2 ACTIVE CELLS= 4070 NUMBER OF EQUATIONS=    4070
 
 SOLVING FOR HEAD 

 NO OUTPUT CONTROL FOR STRESS PERIOD    1   TIME STEP   18
 SOLVING FOR ZETA FOR LAYER     1 ZONE     2

    2183 UPPER PART EQS.      2095 LOWER PART EQS.    BAND WIDTH + 1 =  100
 STRESS PERIOD=  1 TIMESTEP= 18 LAYER=  1 ZONE=  2 ACTIVE CELLS= 4278 NUMBER OF EQUATIONS=    4278
 
 SOLVING FOR HEAD 

 NO OUTPUT CONTROL FOR STRESS PERIOD    1   TIME STEP   19
 SOLVING FOR ZETA FOR LAYER     1 ZONE     2

    2011 UPPER PART EQS.      2134 LOWER PART EQS.    BAND WIDTH + 1 =  134
 INSUFFICIENT MEMORY FOR DE4 SOLVER:
 MXBW MUST BE AT LEAST  134
 
 SOLVING FOR HEAD 

 OUTPUT CONTROL FOR STRESS PERIOD    1   TIME STEP   20
    SAVE HEAD FOR ALL LAYERS
    PRINT BUDGET
 SOLVING FOR ZETA FOR LAYER     1 ZONE     2

    2484 UPPER PART EQS.      2462 LOWER PART EQS.    BAND WIDTH + 1 =   98
 STRESS PERIOD=  1 TIMESTEP= 20 LAYER=  1 ZONE=  2 ACTIVE CELLS= 4946 NUMBER OF EQUATIONS=    4946
 UBUDSV SAVING "      ZETASRF  1" ON UNIT 55 AT TIME STEP 20, STRESS PERIOD    1


                      VOLUMETRIC SWI ZONE BUDGET FOR ENTIRE MODEL
                     AT END OF TIME STEP   20 IN STRESS PERIOD   1
                                      ZONE     1
  -----------------------------------------------------------------------------------

        CUMULATIVE VOLUMES      L**3       RATES FOR THIS TIME STEP      L**3/T
        ------------------                 ------------------------

              IN:                                      IN:
              ---                                      ---
             BOUNDARIES =  5374803456.0000            BOUNDARIES =      717492.2500
          CONSTANT HEAD =  1938965504.0000         CONSTANT HEAD =           0.0000
            ZONE CHANGE = 44859428864.0000           ZONE CHANGE =     7458827.0000
       ZONE CHG TIP/TOE =778640752640.0000      ZONE CHG TIP/TOE =    79297944.0000
            ZONE MIXING =           0.0000           ZONE MIXING =           0.0000

               TOTAL IN =830813962240.0000              TOTAL IN =    87474264.0000

             OUT:                                     OUT:
             ----                                     ----
             BOUNDARIES =           0.0000            BOUNDARIES =           0.0000
          CONSTANT HEAD =378812334080.0000         CONSTANT HEAD =    38837096.0000
            ZONE CHANGE =838619234304.0000           ZONE CHANGE =    89892528.0000
       ZONE CHG TIP/TOE =    46889580.0000      ZONE CHG TIP/TOE =       16530.1914
            ZONE MIXING =           0.0000           ZONE MIXING =           0.0000

              TOTAL OUT =       1.2175E+12             TOTAL OUT =   128746152.0000

               IN - OUT =*****************              IN - OUT =   -41271888.0000

    PERCENT DISCREPANCY =         -37.75     PERCENT DISCREPANCY =         -38.18



                      VOLUMETRIC SWI ZONE BUDGET FOR ENTIRE MODEL
                     AT END OF TIME STEP   20 IN STRESS PERIOD   1
                                      ZONE     2
  -----------------------------------------------------------------------------------

        CUMULATIVE VOLUMES      L**3       RATES FOR THIS TIME STEP      L**3/T
        ------------------                 ------------------------

              IN:                                      IN:
              ---                                      ---
             BOUNDARIES =   634986624.0000            BOUNDARIES =      105203.1250
          CONSTANT HEAD =382444994560.0000         CONSTANT HEAD =    39012288.0000
            ZONE CHANGE = 59981615104.0000           ZONE CHANGE =    10594975.0000
       ZONE CHG TIP/TOE =       4.5018E+13      ZONE CHG TIP/TOE =   828520704.0000
            ZONE MIXING =           0.0000           ZONE MIXING =           0.0000

               TOTAL IN =       4.5461E+13              TOTAL IN =   878233152.0000

             OUT:                                     OUT:
             ----                                     ----
             BOUNDARIES =           0.0000            BOUNDARIES =           0.0000
          CONSTANT HEAD = 11581429760.0000         CONSTANT HEAD =      997884.0625
            ZONE CHANGE =       4.5062E+13           ZONE CHANGE =   835963008.0000
       ZONE CHG TIP/TOE =     3280328.5000      ZONE CHG TIP/TOE =         388.6107
            ZONE MIXING =           0.0000           ZONE MIXING =           0.0000

              TOTAL OUT =       4.5074E+13             TOTAL OUT =   836961280.0000

               IN - OUT =386660302848.0000              IN - OUT =    41271872.0000

    PERCENT DISCREPANCY =           0.85     PERCENT DISCREPANCY =           4.81


 HEAD WILL BE SAVED ON UNIT   51 AT END OF TIME STEP   20, STRESS PERIOD    1
1
  VOLUMETRIC BUDGET FOR ENTIRE MODEL AT END OF TIME STEP   20, STRESS PERIOD   1
  ------------------------------------------------------------------------------

     CUMULATIVE VOLUMES      L**3       RATES FOR THIS TIME STEP      L**3/T
     ------------------                 ------------------------

           IN:                                      IN:
           ---                                      ---
             STORAGE =           0.0000               STORAGE =           0.0000
       CONSTANT HEAD =509627498496.0000         CONSTANT HEAD =    28659878.0000
          SWIADDTOCH =532425637888.0000            SWIADDTOCH =   122136592.0000
            RECHARGE =  6009790464.0000              RECHARGE =      822695.3750

            TOTAL IN =       1.0481E+12              TOTAL IN =   151619152.0000

          OUT:                                     OUT:
          ----                                     ----
             STORAGE =           0.0000               STORAGE =           0.0000
       CONSTANT HEAD =563726581760.0000         CONSTANT HEAD =   127481472.0000
          SWIADDTOCH =484336304128.0000            SWIADDTOCH =    24137694.0000
            RECHARGE =           0.0000              RECHARGE =           0.0000

           TOTAL OUT =       1.0481E+12             TOTAL OUT =   151619168.0000

            IN - OUT =       65536.0000              IN - OUT =         -16.0000

 PERCENT DISCREPANCY =           0.00     PERCENT DISCREPANCY =          -0.00






         TIME SUMMARY AT END OF TIME STEP   20 IN STRESS PERIOD    1
                    SECONDS     MINUTES      HOURS       DAYS        YEARS
                    -----------------------------------------------------------
   TIME STEP LENGTH 3.15576E+07 5.25960E+05  8766.0      365.25      1.0000    
 STRESS PERIOD TIME 6.31152E+08 1.05192E+07 1.75320E+05  7305.0      20.000    
         TOTAL TIME 6.31152E+08 1.05192E+07 1.75320E+05  7305.0      20.000    
1
 
 SOLVING FOR HEAD 

 NO OUTPUT CONTROL FOR STRESS PERIOD    1   TIME STEP   21
 SOLVING FOR ZETA FOR LAYER     1 ZONE     2

    2072 UPPER PART EQS.      2061 LOWER PART EQS.    BAND WIDTH + 1 =   79
 STRESS PERIOD=  1 TIMESTEP= 21 LAYER=  1 ZONE=  2 ACTIVE CELLS= 4133 NUMBER OF EQUATIONS=    4133
 
 SOLVING FOR HEAD 

 NO OUTPUT CONTROL FOR STRESS PERIOD    1   TIME STEP   22
 SOLVING FOR ZETA FOR LAYER     1 ZONE     2

    2277 UPPER PART EQS.      2275 LOWER PART EQS.    BAND WIDTH + 1 =   85
 STRESS PERIOD=  1 TIMESTEP= 22 LAYER=  1 ZONE=  2 ACTIVE CELLS= 4552 NUMBER OF EQUATIONS=    4552
 
 SOLVING FOR HEAD 

 NO OUTPUT CONTROL FOR STRESS PERIOD    1   TIME STEP   23
 SOLVING FOR ZETA FOR LAYER     1 ZONE     2

    2177 UPPER PART EQS.      2215 LOWER PART EQS.    BAND WIDTH + 1 =  106
 INSUFFICIENT MEMORY FOR DE4 SOLVER:
 MXBW MUST BE AT LEAST  106
 
 SOLVING FOR HEAD 

 NO OUTPUT CONTROL FOR STRESS PERIOD    1   TIME STEP   24
 SOLVING FOR ZETA FOR LAYER     1 ZONE     2

    2521 UPPER PART EQS.      2556 LOWER PART EQS.    BAND WIDTH + 1 =   84
 STRESS PERIOD=  1 TIMESTEP= 24 LAYER=  1 ZONE=  2 ACTIVE CELLS= 5077 NUMBER OF EQUATIONS=    5077
 
 SOLVING FOR HEAD 

 NO OUTPUT CONTROL FOR STRESS PERIOD    1   TIME STEP   25
 SOLVING FOR ZETA FOR LAYER     1 ZONE     2

    2133 UPPER PART EQS.      2131 LOWER PART EQS.    BAND WIDTH + 1 =   75
 STRESS PERIOD=  1 TIMESTEP= 25 LAYER=  1 ZONE=  2 ACTIVE CELLS= 4264 NUMBER OF EQUATIONS=    4264
 
 SOLVING FOR HEAD 

 NO OUTPUT CONTROL FOR STRESS PERIOD    1   TIME STEP   26
 SOLVING FOR ZETA FOR LAYER     1 ZONE     2

    1962 UPPER PART EQS.      1966 LOWER PART EQS.    BAND WIDTH + 1 =   82
 STRESS PERIOD=  1 TIMESTEP= 26 LAYER=  1 ZONE=  2 ACTIVE CELLS= 3928 NUMBER OF EQUATIONS=    3928
 
 SOLVING FOR HEAD 

 NO OUTPUT CONTROL FOR STRESS PERIOD    1   TIME STEP   27
 SOLVING FOR ZETA FOR LAYER     1 ZONE     2

    1972 UPPER PART EQS.      1960 LOWER PART EQS.    BAND WIDTH + 1 =   89
 STRESS PERIOD=  1 TIMESTEP= 27 LAYER=  1 ZONE=  2 ACTIVE CELLS= 3932 NUMBER OF EQUATIONS=    3932
 
 SOLVING FOR HEAD 

 NO OUTPUT CONTROL FOR STRESS PERIOD    1   TIME STEP   28
 SOLVING FOR ZETA FOR LAYER     1 ZONE     2

    1722 UPPER PART EQS.      1718 LOWER PART EQS.    BAND WIDTH + 1 =   81
 STRESS PERIOD=  1 TIMESTEP= 28 LAYER=  1 ZONE=  2 ACTIVE CELLS= 3440 NUMBER OF EQUATIONS=    3440
 
 SOLVING FOR HEAD 

 NO OUTPUT CONTROL FOR STRESS PERIOD    1   TIME STEP   29
 SOLVING FOR ZETA FOR LAYER     1 ZONE     2

    1609 UPPER PART EQS.      1629 LOWER PART EQS.    BAND WIDTH + 1 =   91
 STRESS PERIOD=  1 TIMESTEP= 29 LAYER=  1 ZONE=  2 ACTIVE CELLS= 3238 NUMBER OF EQUATIONS=    3238
 
 SOLVING FOR HEAD 

 NO OUTPUT CONTROL FOR STRESS PERIOD    1   TIME STEP   30
 SOLVING FOR ZETA FOR LAYER     1 ZONE     2

    1689 UPPER PART EQS.      1672 LOWER PART EQS.    BAND WIDTH + 1 =   98
 STRESS PERIOD=  1 TIMESTEP= 30 LAYER=  1 ZONE=  2 ACTIVE CELLS= 3361 NUMBER OF EQUATIONS=    3361
 
 SOLVING FOR HEAD 

 NO OUTPUT CONTROL FOR STRESS PERIOD    1   TIME STEP   31
 SOLVING FOR ZETA FOR LAYER     1 ZONE     2

    1677 UPPER PART EQS.      1645 LOWER PART EQS.    BAND WIDTH + 1 =  130
 INSUFFICIENT MEMORY FOR DE4 SOLVER:
 MXBW MUST BE AT LEAST  130
 
 SOLVING FOR HEAD 

 NO OUTPUT CONTROL FOR STRESS PERIOD    1   TIME STEP   32
 SOLVING FOR ZETA FOR LAYER     1 ZONE     2

    1965 UPPER PART EQS.      1991 LOWER PART EQS.    BAND WIDTH + 1 =   79
 STRESS PERIOD=  1 TIMESTEP= 32 LAYER=  1 ZONE=  2 ACTIVE CELLS= 3956 NUMBER OF EQUATIONS=    3956
 
 SOLVING FOR HEAD 

 NO OUTPUT CONTROL FOR STRESS PERIOD    1   TIME STEP   33
 SOLVING FOR ZETA FOR LAYER     1 ZONE     2

    1636 UPPER PART EQS.      1616 LOWER PART EQS.    BAND WIDTH + 1 =   65
 STRESS PERIOD=  1 TIMESTEP= 33 LAYER=  1 ZONE=  2 ACTIVE CELLS= 3252 NUMBER OF EQUATIONS=    3252
 
 SOLVING FOR HEAD 

 NO OUTPUT CONTROL FOR STRESS PERIOD    1   TIME STEP   34
 SOLVING FOR ZETA FOR LAYER     1 ZONE     2

    1712 UPPER PART EQS.      1727 LOWER PART EQS.    BAND WIDTH + 1 =   69
 STRESS PERIOD=  1 TIMESTEP= 34 LAYER=  1 ZONE=  2 ACTIVE CELLS= 3439 NUMBER OF EQUATIONS=    3439
 
 SOLVING FOR HEAD 

 NO OUTPUT CONTROL FOR STRESS PERIOD    1   TIME STEP   35
 SOLVING FOR ZETA FOR LAYER     1 ZONE     2

    1855 UPPER PART EQS.      1846 LOWER PART EQS.    BAND WIDTH + 1 =   71
 STRESS PERIOD=  1 TIMESTEP= 35 LAYER=  1 ZONE=  2 ACTIVE CELLS= 3701 NUMBER OF EQUATIONS=    3701
 
 SOLVING FOR HEAD 

 NO OUTPUT CONTROL FOR STRESS PERIOD    1   TIME STEP   36
 SOLVING FOR ZETA FOR LAYER     1 ZONE     2

    1908 UPPER PART EQS.      1900 LOWER PART EQS.    BAND WIDTH + 1 =   74
 STRESS PERIOD=  1 TIMESTEP= 36 LAYER=  1 ZONE=  2 ACTIVE CELLS= 3808 NUMBER OF EQUATIONS=    3808
 
 SOLVING FOR HEAD 

 NO OUTPUT CONTROL FOR STRESS PERIOD    1   TIME STEP   37
 SOLVING FOR ZETA FOR LAYER     1 ZONE     2

    1843 UPPER PART EQS.      1859 LOWER PART EQS.    BAND WIDTH + 1 =   82
 STRESS PERIOD=  1 TIMESTEP= 37 LAYER=  1 ZONE=  2 ACTIVE CELLS= 3702 NUMBER OF EQUATIONS=    3702
 
 SOLVING FOR HEAD 

 NO OUTPUT CONTROL FOR STRESS PERIOD    1   TIME STEP   38
 SOLVING FOR ZETA FOR LAYER     1 ZONE     2

    1871 UPPER PART EQS.      1823 LOWER PART EQS.    BAND WIDTH + 1 =   95
 STRESS PERIOD=  1 TIMESTEP= 38 LAYER=  1 ZONE=  2 ACTIVE CELLS= 3694 NUMBER OF EQUATIONS=    3694
 
 SOLVING FOR HEAD 

 NO OUTPUT CONTROL FOR STRESS PERIOD    1   TIME STEP   39
 SOLVING FOR ZETA FOR LAYER     1 ZONE     2

    1746 UPPER PART EQS.      1838 LOWER PART EQS.    BAND WIDTH + 1 =  133
 INSUFFICIENT MEMORY FOR DE4 SOLVER:
 MXBW MUST BE AT LEAST  133
 
 SOLVING FOR HEAD 

 OUTPUT CONTROL FOR STRESS PERIOD    1   TIME STEP   40
    SAVE HEAD FOR ALL LAYERS
    PRINT BUDGET
 SOLVING FOR ZETA FOR LAYER     1 ZONE     2

    2166 UPPER PART EQS.      2192 LOWER PART EQS.    BAND WIDTH + 1 =   76
 STRESS PERIOD=  1 TIMESTEP= 40 LAYER=  1 ZONE=  2 ACTIVE CELLS= 4358 NUMBER OF EQUATIONS=    4358
 UBUDSV SAVING "      ZETASRF  1" ON UNIT 55 AT TIME STEP 40, STRESS PERIOD    1


                      VOLUMETRIC SWI ZONE BUDGET FOR ENTIRE MODEL
                     AT END OF TIME STEP   40 IN STRESS PERIOD   1
                                      ZONE     1
  -----------------------------------------------------------------------------------

        CUMULATIVE VOLUMES      L**3       RATES FOR THIS TIME STEP      L**3/T
        ------------------                 ------------------------

              IN:                                      IN:
              ---                                      ---
             BOUNDARIES = 10013501440.0000            BOUNDARIES =      629307.3750
          CONSTANT HEAD =  3830535936.0000         CONSTANT HEAD =           0.0000
            ZONE CHANGE = 86291685376.0000           ZONE CHANGE =     9755311.0000
       ZONE CHG TIP/TOE =       1.1989E+12      ZONE CHG TIP/TOE =    25838472.0000
            ZONE MIXING =           0.0000           ZONE MIXING =           0.0000

               TOTAL IN =       1.2990E+12              TOTAL IN =    36223088.0000

             OUT:                                     OUT:
             ----                                     ----
             BOUNDARIES =           0.0000            BOUNDARIES =           0.0000
          CONSTANT HEAD =595123109888.0000         CONSTANT HEAD =    52864464.0000
            ZONE CHANGE =       1.2917E+12           ZONE CHANGE =    30469936.0000
       ZONE CHG TIP/TOE =   134853120.0000      ZONE CHG TIP/TOE =        2426.7502
            ZONE MIXING =           0.0000           ZONE MIXING =           0.0000

              TOTAL OUT =       1.8869E+12             TOTAL OUT =    83336824.0000

               IN - OUT =*****************              IN - OUT =   -47113736.0000

    PERCENT DISCREPANCY =         -36.91     PERCENT DISCREPANCY =         -78.81



                      VOLUMETRIC SWI ZONE BUDGET FOR ENTIRE MODEL
                     AT END OF TIME STEP   40 IN STRESS PERIOD   1
                                      ZONE     2
  -----------------------------------------------------------------------------------

        CUMULATIVE VOLUMES      L**3       RATES FOR THIS TIME STEP      L**3/T
        ------------------                 ------------------------

              IN:                                      IN:
              ---                                      ---
             BOUNDARIES =  2006078336.0000            BOUNDARIES =      193388.0000
          CONSTANT HEAD =612901847040.0000         CONSTANT HEAD =    53697540.0000
            ZONE CHANGE = 92836315136.0000           ZONE CHANGE =     4631856.0000
       ZONE CHG TIP/TOE =       8.5600E+13      ZONE CHG TIP/TOE =  1362122752.0000
            ZONE MIXING =           0.0000           ZONE MIXING =           0.0000

               TOTAL IN =       8.6308E+13              TOTAL IN =  1420645504.0000

             OUT:                                     OUT:
             ----                                     ----
             BOUNDARIES =           0.0000            BOUNDARIES =           0.0000
          CONSTANT HEAD = 33628987392.0000         CONSTANT HEAD =     1655768.3750
            ZONE CHANGE =       8.5687E+13           ZONE CHANGE =  1371875712.0000
       ZONE CHG TIP/TOE =     6247877.0000      ZONE CHG TIP/TOE =         393.5051
            ZONE MIXING =           0.0000           ZONE MIXING =           0.0000

              TOTAL OUT =       8.5720E+13             TOTAL OUT =  1373531904.0000

               IN - OUT =587940757504.0000              IN - OUT =    47113600.0000

    PERCENT DISCREPANCY =           0.68     PERCENT DISCREPANCY =           3.37


 HEAD WILL BE SAVED ON UNIT   51 AT END OF TIME STEP   40, STRESS PERIOD    1
1
  VOLUMETRIC BUDGET FOR ENTIRE MODEL AT END OF TIME STEP   40, STRESS PERIOD   1
  ------------------------------------------------------------------------------

     CUMULATIVE VOLUMES      L**3       RATES FOR THIS TIME STEP      L**3/T
     ------------------                 ------------------------

           IN:                                      IN:
           ---                                      ---
             STORAGE =           0.0000               STORAGE =           0.0000
       CONSTANT HEAD =933172477952.0000         CONSTANT HEAD =    60153728.0000
          SWIADDTOCH =920238751744.0000            SWIADDTOCH =    57928328.0000
            RECHARGE = 12019585024.0000              RECHARGE =      822695.3750

            TOTAL IN =       1.8654E+12              TOTAL IN =   118904752.0000

          OUT:                                     OUT:
          ----                                     ----
             STORAGE =           0.0000               STORAGE =           0.0000
       CONSTANT HEAD =968069480448.0000         CONSTANT HEAD =    62819124.0000
          SWIADDTOCH =897360986112.0000            SWIADDTOCH =    56085624.0000
            RECHARGE =           0.0000              RECHARGE =           0.0000

           TOTAL OUT =       1.8654E+12             TOTAL OUT =   118904752.0000

            IN - OUT =      393216.0000              IN - OUT =           0.0000

 PERCENT DISCREPANCY =           0.00     PERCENT DISCREPANCY =           0.00






         TIME SUMMARY AT END OF TIME STEP   40 IN STRESS PERIOD    1
                    SECONDS     MINUTES      HOURS       DAYS        YEARS
                    -----------------------------------------------------------
   TIME STEP LENGTH 3.15576E+07 5.25960E+05  8766.0      365.25      1.0000    
 STRESS PERIOD TIME 1.26230E+09 2.10384E+07 3.50640E+05  14610.      40.000    
         TOTAL TIME 1.26230E+09 2.10384E+07 3.50640E+05  14610.      40.000    
1
 
 SOLVING FOR HEAD 

 NO OUTPUT CONTROL FOR STRESS PERIOD    1   TIME STEP   41
 SOLVING FOR ZETA FOR LAYER     1 ZONE     2

    1767 UPPER PART EQS.      1745 LOWER PART EQS.    BAND WIDTH + 1 =   68
 STRESS PERIOD=  1 TIMESTEP= 41 LAYER=  1 ZONE=  2 ACTIVE CELLS= 3512 NUMBER OF EQUATIONS=    3512
 
 SOLVING FOR HEAD 

 NO OUTPUT CONTROL FOR STRESS PERIOD    1   TIME STEP   42
 SOLVING FOR ZETA FOR LAYER     1 ZONE     2

    1764 UPPER PART EQS.      1752 LOWER PART EQS.    BAND WIDTH + 1 =   75
 STRESS PERIOD=  1 TIMESTEP= 42 LAYER=  1 ZONE=  2 ACTIVE CELLS= 3516 NUMBER OF EQUATIONS=    3516
 
 SOLVING FOR HEAD 

 NO OUTPUT CONTROL FOR STRESS PERIOD    1   TIME STEP   43
 SOLVING FOR ZETA FOR LAYER     1 ZONE     2

    1842 UPPER PART EQS.      1871 LOWER PART EQS.    BAND WIDTH + 1 =   87
 STRESS PERIOD=  1 TIMESTEP= 43 LAYER=  1 ZONE=  2 ACTIVE CELLS= 3713 NUMBER OF EQUATIONS=    3713
 
 SOLVING FOR HEAD 

 NO OUTPUT CONTROL FOR STRESS PERIOD    1   TIME STEP   44
 SOLVING FOR ZETA FOR LAYER     1 ZONE     2

    1864 UPPER PART EQS.      1839 LOWER PART EQS.    BAND WIDTH + 1 =   91
 STRESS PERIOD=  1 TIMESTEP= 44 LAYER=  1 ZONE=  2 ACTIVE CELLS= 3703 NUMBER OF EQUATIONS=    3703
 
 SOLVING FOR HEAD 

 NO OUTPUT CONTROL FOR STRESS PERIOD    1   TIME STEP   45
 SOLVING FOR ZETA FOR LAYER     1 ZONE     2

    1878 UPPER PART EQS.      1898 LOWER PART EQS.    BAND WIDTH + 1 =   97
 STRESS PERIOD=  1 TIMESTEP= 45 LAYER=  1 ZONE=  2 ACTIVE CELLS= 3776 NUMBER OF EQUATIONS=    3776
 
 SOLVING FOR HEAD 

 NO OUTPUT CONTROL FOR STRESS PERIOD    1   TIME STEP   46
 SOLVING FOR ZETA FOR LAYER     1 ZONE     2

    1827 UPPER PART EQS.      1830 LOWER PART EQS.    BAND WIDTH + 1 =   99
 STRESS PERIOD=  1 TIMESTEP= 46 LAYER=  1 ZONE=  2 ACTIVE CELLS= 3657 NUMBER OF EQUATIONS=    3657
 
 SOLVING FOR HEAD 

 NO OUTPUT CONTROL FOR STRESS PERIOD    1   TIME STEP   47
 SOLVING FOR ZETA FOR LAYER     1 ZONE     2

    1744 UPPER PART EQS.      1764 LOWER PART EQS.    BAND WIDTH + 1 =   97
 STRESS PERIOD=  1 TIMESTEP= 47 LAYER=  1 ZONE=  2 ACTIVE CELLS= 3508 NUMBER OF EQUATIONS=    3508
 
 SOLVING FOR HEAD 

 NO OUTPUT CONTROL FOR STRESS PERIOD    1   TIME STEP   48
 SOLVING FOR ZETA FOR LAYER     1 ZONE     2

    1785 UPPER PART EQS.      1775 LOWER PART EQS.    BAND WIDTH + 1 =  103
 STRESS PERIOD=  1 TIMESTEP= 48 LAYER=  1 ZONE=  2 ACTIVE CELLS= 3560 NUMBER OF EQUATIONS=    3560
 
 SOLVING FOR HEAD 

 NO OUTPUT CONTROL FOR STRESS PERIOD    1   TIME STEP   49
 SOLVING FOR ZETA FOR LAYER     1 ZONE     2

    1774 UPPER PART EQS.      1803 LOWER PART EQS.    BAND WIDTH + 1 =   96
 STRESS PERIOD=  1 TIMESTEP= 49 LAYER=  1 ZONE=  2 ACTIVE CELLS= 3577 NUMBER OF EQUATIONS=    3577
 
 SOLVING FOR HEAD 

 NO OUTPUT CONTROL FOR STRESS PERIOD    1   TIME STEP   50
 SOLVING FOR ZETA FOR LAYER     1 ZONE     2

    1776 UPPER PART EQS.      1734 LOWER PART EQS.    BAND WIDTH + 1 =  110
 INSUFFICIENT MEMORY FOR DE4 SOLVER:
 MXBW MUST BE AT LEAST  110
 
 SOLVING FOR HEAD 

 NO OUTPUT CONTROL FOR STRESS PERIOD    1   TIME STEP   51
 SOLVING FOR ZETA FOR LAYER     1 ZONE     2

    2040 UPPER PART EQS.      2065 LOWER PART EQS.    BAND WIDTH + 1 =   87
 STRESS PERIOD=  1 TIMESTEP= 51 LAYER=  1 ZONE=  2 ACTIVE CELLS= 4105 NUMBER OF EQUATIONS=    4105
 
 SOLVING FOR HEAD 

 NO OUTPUT CONTROL FOR STRESS PERIOD    1   TIME STEP   52
 SOLVING FOR ZETA FOR LAYER     1 ZONE     2

    1546 UPPER PART EQS.      1545 LOWER PART EQS.    BAND WIDTH + 1 =   67
 STRESS PERIOD=  1 TIMESTEP= 52 LAYER=  1 ZONE=  2 ACTIVE CELLS= 3091 NUMBER OF EQUATIONS=    3091
 
 SOLVING FOR HEAD 

 NO OUTPUT CONTROL FOR STRESS PERIOD    1   TIME STEP   53
 SOLVING FOR ZETA FOR LAYER     1 ZONE     2

    1690 UPPER PART EQS.      1676 LOWER PART EQS.    BAND WIDTH + 1 =   67
 STRESS PERIOD=  1 TIMESTEP= 53 LAYER=  1 ZONE=  2 ACTIVE CELLS= 3366 NUMBER OF EQUATIONS=    3366
 
 SOLVING FOR HEAD 

 NO OUTPUT CONTROL FOR STRESS PERIOD    1   TIME STEP   54
 SOLVING FOR ZETA FOR LAYER     1 ZONE     2

    1760 UPPER PART EQS.      1764 LOWER PART EQS.    BAND WIDTH + 1 =   71
 STRESS PERIOD=  1 TIMESTEP= 54 LAYER=  1 ZONE=  2 ACTIVE CELLS= 3524 NUMBER OF EQUATIONS=    3524
 
 SOLVING FOR HEAD 

 NO OUTPUT CONTROL FOR STRESS PERIOD    1   TIME STEP   55
 SOLVING FOR ZETA FOR LAYER     1 ZONE     2

    1778 UPPER PART EQS.      1786 LOWER PART EQS.    BAND WIDTH + 1 =   74
 STRESS PERIOD=  1 TIMESTEP= 55 LAYER=  1 ZONE=  2 ACTIVE CELLS= 3564 NUMBER OF EQUATIONS=    3564
 
 SOLVING FOR HEAD 

 NO OUTPUT CONTROL FOR STRESS PERIOD    1   TIME STEP   56
 SOLVING FOR ZETA FOR LAYER     1 ZONE     2

    1670 UPPER PART EQS.      1659 LOWER PART EQS.    BAND WIDTH + 1 =   78
 STRESS PERIOD=  1 TIMESTEP= 56 LAYER=  1 ZONE=  2 ACTIVE CELLS= 3329 NUMBER OF EQUATIONS=    3329
 
 SOLVING FOR HEAD 

 NO OUTPUT CONTROL FOR STRESS PERIOD    1   TIME STEP   57
 SOLVING FOR ZETA FOR LAYER     1 ZONE     2

    1669 UPPER PART EQS.      1699 LOWER PART EQS.    BAND WIDTH + 1 =   71
 STRESS PERIOD=  1 TIMESTEP= 57 LAYER=  1 ZONE=  2 ACTIVE CELLS= 3368 NUMBER OF EQUATIONS=    3368
 
 SOLVING FOR HEAD 

 NO OUTPUT CONTROL FOR STRESS PERIOD    1   TIME STEP   58
 SOLVING FOR ZETA FOR LAYER     1 ZONE     2

    1799 UPPER PART EQS.      1766 LOWER PART EQS.    BAND WIDTH + 1 =   77
 STRESS PERIOD=  1 TIMESTEP= 58 LAYER=  1 ZONE=  2 ACTIVE CELLS= 3565 NUMBER OF EQUATIONS=    3565
 
 SOLVING FOR HEAD 

 NO OUTPUT CONTROL FOR STRESS PERIOD    1   TIME STEP   59
 SOLVING FOR ZETA FOR LAYER     1 ZONE     2

    1628 UPPER PART EQS.      1714 LOWER PART EQS.    BAND WIDTH + 1 =   86
 STRESS PERIOD=  1 TIMESTEP= 59 LAYER=  1 ZONE=  2 ACTIVE CELLS= 3342 NUMBER OF EQUATIONS=    3342
 
 SOLVING FOR HEAD 

 OUTPUT CONTROL FOR STRESS PERIOD    1   TIME STEP   60
    SAVE HEAD FOR ALL LAYERS
    PRINT BUDGET
 SOLVING FOR ZETA FOR LAYER     1 ZONE     2

    1724 UPPER PART EQS.      1642 LOWER PART EQS.    BAND WIDTH + 1 =   91
 STRESS PERIOD=  1 TIMESTEP= 60 LAYER=  1 ZONE=  2 ACTIVE CELLS= 3366 NUMBER OF EQUATIONS=    3366
 UBUDSV SAVING "      ZETASRF  1" ON UNIT 55 AT TIME STEP 60, STRESS PERIOD    1


                      VOLUMETRIC SWI ZONE BUDGET FOR ENTIRE MODEL
                     AT END OF TIME STEP   60 IN STRESS PERIOD   1
                                      ZONE     1
  -----------------------------------------------------------------------------------

        CUMULATIVE VOLUMES      L**3       RATES FOR THIS TIME STEP      L**3/T
        ------------------                 ------------------------

              IN:                                      IN:
              ---                                      ---
             BOUNDARIES = 14507041792.0000            BOUNDARIES =      572385.3125
          CONSTANT HEAD = 12588136448.0000         CONSTANT HEAD =     3925232.2500
            ZONE CHANGE =118706855936.0000           ZONE CHANGE =     4420046.0000
       ZONE CHG TIP/TOE =       1.6181E+12      ZONE CHG TIP/TOE =   104040512.0000
            ZONE MIXING =           0.0000           ZONE MIXING =           0.0000

               TOTAL IN =       1.7639E+12              TOTAL IN =   112958176.0000

             OUT:                                     OUT:
             ----                                     ----
             BOUNDARIES =           0.0000            BOUNDARIES =           0.0000
          CONSTANT HEAD =765979656192.0000         CONSTANT HEAD =    28820204.0000
            ZONE CHANGE =       1.7446E+12           ZONE CHANGE =   109115720.0000
       ZONE CHG TIP/TOE =   208914656.0000      ZONE CHG TIP/TOE =        6069.3457
            ZONE MIXING =           0.0000           ZONE MIXING =           0.0000

              TOTAL OUT =       2.5108E+12             TOTAL OUT =   137941984.0000

               IN - OUT =*****************              IN - OUT =   -24983808.0000

    PERCENT DISCREPANCY =         -34.95     PERCENT DISCREPANCY =         -19.92



                      VOLUMETRIC SWI ZONE BUDGET FOR ENTIRE MODEL
                     AT END OF TIME STEP   60 IN STRESS PERIOD   1
                                      ZONE     2
  -----------------------------------------------------------------------------------

        CUMULATIVE VOLUMES      L**3       RATES FOR THIS TIME STEP      L**3/T
        ------------------                 ------------------------

              IN:                                      IN:
              ---                                      ---
             BOUNDARIES =  3522326528.0000            BOUNDARIES =      250310.0625
          CONSTANT HEAD =796251258880.0000         CONSTANT HEAD =    30131816.0000
            ZONE CHANGE =126519803904.0000           ZONE CHANGE =     5075559.5000
       ZONE CHG TIP/TOE =       1.3324E+14      ZONE CHG TIP/TOE =  8391289856.0000
            ZONE MIXING =           0.0000           ZONE MIXING =           0.0000

               TOTAL IN =       1.3417E+14              TOTAL IN =  8426747392.0000

             OUT:                                     OUT:
             ----                                     ----
             BOUNDARIES =           0.0000            BOUNDARIES =           0.0000
          CONSTANT HEAD = 60888952832.0000         CONSTANT HEAD =     6059538.0000
            ZONE CHANGE =       1.3336E+14           ZONE CHANGE =  8395703808.0000
       ZONE CHG TIP/TOE =     8770121.0000      ZONE CHG TIP/TOE =         349.5067
            ZONE MIXING =           0.0000           ZONE MIXING =           0.0000

              TOTAL OUT =       1.3342E+14             TOTAL OUT =  8401763840.0000

               IN - OUT =746896490496.0000              IN - OUT =    24983552.0000

    PERCENT DISCREPANCY =           0.56     PERCENT DISCREPANCY =           0.30


 HEAD WILL BE SAVED ON UNIT   51 AT END OF TIME STEP   60, STRESS PERIOD    1
1
  VOLUMETRIC BUDGET FOR ENTIRE MODEL AT END OF TIME STEP   60, STRESS PERIOD   1
  ------------------------------------------------------------------------------

     CUMULATIVE VOLUMES      L**3       RATES FOR THIS TIME STEP      L**3/T
     ------------------                 ------------------------

           IN:                                      IN:
           ---                                      ---
             STORAGE =           0.0000               STORAGE =           0.0000
       CONSTANT HEAD =       1.2974E+12         CONSTANT HEAD =    64567348.0000
          SWIADDTOCH =       1.0585E+12            SWIADDTOCH =    27016280.0000
            RECHARGE = 18029377536.0000              RECHARGE =      822695.3750

            TOTAL IN =       2.3739E+12              TOTAL IN =    92406328.0000

          OUT:                                     OUT:
          ----                                     ----
             STORAGE =           0.0000               STORAGE =           0.0000
       CONSTANT HEAD =       1.1197E+12         CONSTANT HEAD =    28425278.0000
          SWIADDTOCH =       1.2542E+12            SWIADDTOCH =    63981044.0000
            RECHARGE =           0.0000              RECHARGE =           0.0000

           TOTAL OUT =       2.3739E+12             TOTAL OUT =    92406320.0000

            IN - OUT =      262144.0000              IN - OUT =           8.0000

 PERCENT DISCREPANCY =           0.00     PERCENT DISCREPANCY =           0.00






         TIME SUMMARY AT END OF TIME STEP   60 IN STRESS PERIOD    1
                    SECONDS     MINUTES      HOURS       DAYS        YEARS
                    -----------------------------------------------------------
   TIME STEP LENGTH 3.15576E+07 5.25960E+05  8766.0      365.25      1.0000    
 STRESS PERIOD TIME 1.89346E+09 3.15576E+07 5.25960E+05  21915.      60.000    
         TOTAL TIME 1.89346E+09 3.15576E+07 5.25960E+05  21915.      60.000    
1
 
 SOLVING FOR HEAD 

 NO OUTPUT CONTROL FOR STRESS PERIOD    1   TIME STEP   61
 SOLVING FOR ZETA FOR LAYER     1 ZONE     2

    1707 UPPER PART EQS.      1799 LOWER PART EQS.    BAND WIDTH + 1 =   97
 STRESS PERIOD=  1 TIMESTEP= 61 LAYER=  1 ZONE=  2 ACTIVE CELLS= 3506 NUMBER OF EQUATIONS=    3506
 
 SOLVING FOR HEAD 

 NO OUTPUT CONTROL FOR STRESS PERIOD    1   TIME STEP   62
 SOLVING FOR ZETA FOR LAYER     1 ZONE     2

    1644 UPPER PART EQS.      1570 LOWER PART EQS.    BAND WIDTH + 1 =   78
 STRESS PERIOD=  1 TIMESTEP= 62 LAYER=  1 ZONE=  2 ACTIVE CELLS= 3214 NUMBER OF EQUATIONS=    3214
 
 SOLVING FOR HEAD 

 NO OUTPUT CONTROL FOR STRESS PERIOD    1   TIME STEP   63
 SOLVING FOR ZETA FOR LAYER     1 ZONE     2

    1618 UPPER PART EQS.      1703 LOWER PART EQS.    BAND WIDTH + 1 =  107
 INSUFFICIENT MEMORY FOR DE4 SOLVER:
 MXBW MUST BE AT LEAST  107
 
 SOLVING FOR HEAD 

 NO OUTPUT CONTROL FOR STRESS PERIOD    1   TIME STEP   64
 SOLVING FOR ZETA FOR LAYER     1 ZONE     2

    1961 UPPER PART EQS.      1941 LOWER PART EQS.    BAND WIDTH + 1 =   73
 STRESS PERIOD=  1 TIMESTEP= 64 LAYER=  1 ZONE=  2 ACTIVE CELLS= 3902 NUMBER OF EQUATIONS=    3902
 
 SOLVING FOR HEAD 

 NO OUTPUT CONTROL FOR STRESS PERIOD    1   TIME STEP   65
 SOLVING FOR ZETA FOR LAYER     1 ZONE     2

    1575 UPPER PART EQS.      1597 LOWER PART EQS.    BAND WIDTH + 1 =   72
 STRESS PERIOD=  1 TIMESTEP= 65 LAYER=  1 ZONE=  2 ACTIVE CELLS= 3172 NUMBER OF EQUATIONS=    3172
 
 SOLVING FOR HEAD 

 NO OUTPUT CONTROL FOR STRESS PERIOD    1   TIME STEP   66
 SOLVING FOR ZETA FOR LAYER     1 ZONE     2

    1621 UPPER PART EQS.      1554 LOWER PART EQS.    BAND WIDTH + 1 =   94
 STRESS PERIOD=  1 TIMESTEP= 66 LAYER=  1 ZONE=  2 ACTIVE CELLS= 3175 NUMBER OF EQUATIONS=    3175
 
 SOLVING FOR HEAD 

 NO OUTPUT CONTROL FOR STRESS PERIOD    1   TIME STEP   67
 SOLVING FOR ZETA FOR LAYER     1 ZONE     2

    1603 UPPER PART EQS.      1677 LOWER PART EQS.    BAND WIDTH + 1 =   96
 STRESS PERIOD=  1 TIMESTEP= 67 LAYER=  1 ZONE=  2 ACTIVE CELLS= 3280 NUMBER OF EQUATIONS=    3280
 
 SOLVING FOR HEAD 

 NO OUTPUT CONTROL FOR STRESS PERIOD    1   TIME STEP   68
 SOLVING FOR ZETA FOR LAYER     1 ZONE     2

    1678 UPPER PART EQS.      1644 LOWER PART EQS.    BAND WIDTH + 1 =   91
 STRESS PERIOD=  1 TIMESTEP= 68 LAYER=  1 ZONE=  2 ACTIVE CELLS= 3322 NUMBER OF EQUATIONS=    3322
 
 SOLVING FOR HEAD 

 NO OUTPUT CONTROL FOR STRESS PERIOD    1   TIME STEP   69
 SOLVING FOR ZETA FOR LAYER     1 ZONE     2

    1572 UPPER PART EQS.      1594 LOWER PART EQS.    BAND WIDTH + 1 =   89
 STRESS PERIOD=  1 TIMESTEP= 69 LAYER=  1 ZONE=  2 ACTIVE CELLS= 3166 NUMBER OF EQUATIONS=    3166
 
 SOLVING FOR HEAD 

 NO OUTPUT CONTROL FOR STRESS PERIOD    1   TIME STEP   70
 SOLVING FOR ZETA FOR LAYER     1 ZONE     2

    1474 UPPER PART EQS.      1483 LOWER PART EQS.    BAND WIDTH + 1 =   83
 STRESS PERIOD=  1 TIMESTEP= 70 LAYER=  1 ZONE=  2 ACTIVE CELLS= 2957 NUMBER OF EQUATIONS=    2957
 
 SOLVING FOR HEAD 

 NO OUTPUT CONTROL FOR STRESS PERIOD    1   TIME STEP   71
 SOLVING FOR ZETA FOR LAYER     1 ZONE     2

    1427 UPPER PART EQS.      1445 LOWER PART EQS.    BAND WIDTH + 1 =   84
 STRESS PERIOD=  1 TIMESTEP= 71 LAYER=  1 ZONE=  2 ACTIVE CELLS= 2872 NUMBER OF EQUATIONS=    2872
 
 SOLVING FOR HEAD 

 NO OUTPUT CONTROL FOR STRESS PERIOD    1   TIME STEP   72
 SOLVING FOR ZETA FOR LAYER     1 ZONE     2

    1528 UPPER PART EQS.      1475 LOWER PART EQS.    BAND WIDTH + 1 =  115
 INSUFFICIENT MEMORY FOR DE4 SOLVER:
 MXBW MUST BE AT LEAST  115
 
 SOLVING FOR HEAD 

 NO OUTPUT CONTROL FOR STRESS PERIOD    1   TIME STEP   73
 SOLVING FOR ZETA FOR LAYER     1 ZONE     2

    1752 UPPER PART EQS.      1795 LOWER PART EQS.    BAND WIDTH + 1 =   69
 STRESS PERIOD=  1 TIMESTEP= 73 LAYER=  1 ZONE=  2 ACTIVE CELLS= 3547 NUMBER OF EQUATIONS=    3547
 
 SOLVING FOR HEAD 

 NO OUTPUT CONTROL FOR STRESS PERIOD    1   TIME STEP   74
 SOLVING FOR ZETA FOR LAYER     1 ZONE     2

    1460 UPPER PART EQS.      1470 LOWER PART EQS.    BAND WIDTH + 1 =   68
 STRESS PERIOD=  1 TIMESTEP= 74 LAYER=  1 ZONE=  2 ACTIVE CELLS= 2930 NUMBER OF EQUATIONS=    2930
 
 SOLVING FOR HEAD 

 NO OUTPUT CONTROL FOR STRESS PERIOD    1   TIME STEP   75
 SOLVING FOR ZETA FOR LAYER     1 ZONE     2

    1520 UPPER PART EQS.      1542 LOWER PART EQS.    BAND WIDTH + 1 =   74
 STRESS PERIOD=  1 TIMESTEP= 75 LAYER=  1 ZONE=  2 ACTIVE CELLS= 3062 NUMBER OF EQUATIONS=    3062
 
 SOLVING FOR HEAD 

 NO OUTPUT CONTROL FOR STRESS PERIOD    1   TIME STEP   76
 SOLVING FOR ZETA FOR LAYER     1 ZONE     2

    1580 UPPER PART EQS.      1526 LOWER PART EQS.    BAND WIDTH + 1 =   96
 STRESS PERIOD=  1 TIMESTEP= 76 LAYER=  1 ZONE=  2 ACTIVE CELLS= 3106 NUMBER OF EQUATIONS=    3106
 
 SOLVING FOR HEAD 

 NO OUTPUT CONTROL FOR STRESS PERIOD    1   TIME STEP   77
 SOLVING FOR ZETA FOR LAYER     1 ZONE     2

    1574 UPPER PART EQS.      1633 LOWER PART EQS.    BAND WIDTH + 1 =  108
 INSUFFICIENT MEMORY FOR DE4 SOLVER:
 MXBW MUST BE AT LEAST  108
 
 SOLVING FOR HEAD 

 NO OUTPUT CONTROL FOR STRESS PERIOD    1   TIME STEP   78
 SOLVING FOR ZETA FOR LAYER     1 ZONE     2

    1846 UPPER PART EQS.      1803 LOWER PART EQS.    BAND WIDTH + 1 =   83
 STRESS PERIOD=  1 TIMESTEP= 78 LAYER=  1 ZONE=  2 ACTIVE CELLS= 3649 NUMBER OF EQUATIONS=    3649
 
 SOLVING FOR HEAD 

 NO OUTPUT CONTROL FOR STRESS PERIOD    1   TIME STEP   79
 SOLVING FOR ZETA FOR LAYER     1 ZONE     2

    1515 UPPER PART EQS.      1559 LOWER PART EQS.    BAND WIDTH + 1 =   73
 STRESS PERIOD=  1 TIMESTEP= 79 LAYER=  1 ZONE=  2 ACTIVE CELLS= 3074 NUMBER OF EQUATIONS=    3074
 
 SOLVING FOR HEAD 

 OUTPUT CONTROL FOR STRESS PERIOD    1   TIME STEP   80
    SAVE HEAD FOR ALL LAYERS
    PRINT BUDGET
 SOLVING FOR ZETA FOR LAYER     1 ZONE     2

    1693 UPPER PART EQS.      1626 LOWER PART EQS.    BAND WIDTH + 1 =  100
 STRESS PERIOD=  1 TIMESTEP= 80 LAYER=  1 ZONE=  2 ACTIVE CELLS= 3319 NUMBER OF EQUATIONS=    3319
 UBUDSV SAVING "      ZETASRF  1" ON UNIT 55 AT TIME STEP 80, STRESS PERIOD    1


                      VOLUMETRIC SWI ZONE BUDGET FOR ENTIRE MODEL
                     AT END OF TIME STEP   80 IN STRESS PERIOD   1
                                      ZONE     1
  -----------------------------------------------------------------------------------

        CUMULATIVE VOLUMES      L**3       RATES FOR THIS TIME STEP      L**3/T
        ------------------                 ------------------------

              IN:                                      IN:
              ---                                      ---
             BOUNDARIES = 18611019776.0000            BOUNDARIES =      605241.2500
          CONSTANT HEAD = 13698243584.0000         CONSTANT HEAD =      219165.1406
            ZONE CHANGE =147373506560.0000           ZONE CHANGE =     4909217.5000
       ZONE CHG TIP/TOE =       2.0665E+12      ZONE CHG TIP/TOE =    66307516.0000
            ZONE MIXING =           0.0000           ZONE MIXING =           0.0000

               TOTAL IN =       2.2462E+12              TOTAL IN =    72041136.0000

             OUT:                                     OUT:
             ----                                     ----
             BOUNDARIES =           0.0000            BOUNDARIES =           0.0000
          CONSTANT HEAD =971159633920.0000         CONSTANT HEAD =    16720680.0000
            ZONE CHANGE =       2.2192E+12           ZONE CHANGE =    70602360.0000
       ZONE CHG TIP/TOE =   247589824.0000      ZONE CHG TIP/TOE =        3348.0891
            ZONE MIXING =           0.0000           ZONE MIXING =           0.0000

              TOTAL OUT =       3.1906E+12             TOTAL OUT =    87326392.0000

               IN - OUT =*****************              IN - OUT =   -15285256.0000

    PERCENT DISCREPANCY =         -34.74     PERCENT DISCREPANCY =         -19.18



                      VOLUMETRIC SWI ZONE BUDGET FOR ENTIRE MODEL
                     AT END OF TIME STEP   80 IN STRESS PERIOD   1
                                      ZONE     2
  -----------------------------------------------------------------------------------

        CUMULATIVE VOLUMES      L**3       RATES FOR THIS TIME STEP      L**3/T
        ------------------                 ------------------------

              IN:                                      IN:
              ---                                      ---
             BOUNDARIES =  5428142592.0000            BOUNDARIES =      217454.1719
          CONSTANT HEAD =       1.0197E+12         CONSTANT HEAD =    18637274.0000
            ZONE CHANGE =152662179840.0000           ZONE CHANGE =     4295205.0000
       ZONE CHG TIP/TOE =       1.6456E+14      ZONE CHG TIP/TOE =  3403038464.0000
            ZONE MIXING =           0.0000           ZONE MIXING =           0.0000

               TOTAL IN =       1.6573E+14              TOTAL IN =  3426188288.0000

             OUT:                                     OUT:
             ----                                     ----
             BOUNDARIES =           0.0000            BOUNDARIES =           0.0000
          CONSTANT HEAD = 86327558144.0000         CONSTANT HEAD =     2958454.2500
            ZONE CHANGE =       1.6470E+14           ZONE CHANGE =  3407944448.0000
       ZONE CHG TIP/TOE =    11302744.0000      ZONE CHG TIP/TOE =         361.1776
            ZONE MIXING =           0.0000           ZONE MIXING =           0.0000

              TOTAL OUT =       1.6479E+14             TOTAL OUT =  3410903040.0000

               IN - OUT =944355934208.0000              IN - OUT =    15285248.0000

    PERCENT DISCREPANCY =           0.57     PERCENT DISCREPANCY =           0.45


 HEAD WILL BE SAVED ON UNIT   51 AT END OF TIME STEP   80, STRESS PERIOD    1
1
  VOLUMETRIC BUDGET FOR ENTIRE MODEL AT END OF TIME STEP   80, STRESS PERIOD   1
  ------------------------------------------------------------------------------

     CUMULATIVE VOLUMES      L**3       RATES FOR THIS TIME STEP      L**3/T
     ------------------                 ------------------------

           IN:                                      IN:
           ---                                      ---
             STORAGE =           0.0000               STORAGE =           0.0000
       CONSTANT HEAD =       1.6799E+12         CONSTANT HEAD =    35270200.0000
          SWIADDTOCH =       1.3558E+12            SWIADDTOCH =    10670445.0000
            RECHARGE = 24039151616.0000              RECHARGE =      822695.3750

            TOTAL IN =       3.0597E+12              TOTAL IN =    46763340.0000

          OUT:                                     OUT:
          ----                                     ----
             STORAGE =           0.0000               STORAGE =           0.0000
       CONSTANT HEAD =       1.4345E+12         CONSTANT HEAD =     5660882.5000
          SWIADDTOCH =       1.6252E+12            SWIADDTOCH =    41102456.0000
            RECHARGE =           0.0000              RECHARGE =           0.0000

           TOTAL OUT =       3.0597E+12             TOTAL OUT =    46763340.0000

            IN - OUT =      524288.0000              IN - OUT =           0.0000

 PERCENT DISCREPANCY =           0.00     PERCENT DISCREPANCY =           0.00






         TIME SUMMARY AT END OF TIME STEP   80 IN STRESS PERIOD    1
                    SECONDS     MINUTES      HOURS       DAYS        YEARS
                    -----------------------------------------------------------
   TIME STEP LENGTH 3.15576E+07 5.25960E+05  8766.0      365.25      1.0000    
 STRESS PERIOD TIME 2.52461E+09 4.20768E+07 7.01280E+05  29220.      80.000    
         TOTAL TIME 2.52461E+09 4.20768E+07 7.01280E+05  29220.      80.000    
1
 
 SOLVING FOR HEAD 

 NO OUTPUT CONTROL FOR STRESS PERIOD    1   TIME STEP   81
 SOLVING FOR ZETA FOR LAYER     1 ZONE     2

    1507 UPPER PART EQS.      1573 LOWER PART EQS.    BAND WIDTH + 1 =  124
 INSUFFICIENT MEMORY FOR DE4 SOLVER:
 MXBW MUST BE AT LEAST  124
 
 SOLVING FOR HEAD 

 NO OUTPUT CONTROL FOR STRESS PERIOD    1   TIME STEP   82
 SOLVING FOR ZETA FOR LAYER     1 ZONE     2

    1761 UPPER PART EQS.      1742 LOWER PART EQS.    BAND WIDTH + 1 =   80
 STRESS PERIOD=  1 TIMESTEP= 82 LAYER=  1 ZONE=  2 ACTIVE CELLS= 3503 NUMBER OF EQUATIONS=    3503
 
 SOLVING FOR HEAD 

 NO OUTPUT CONTROL FOR STRESS PERIOD    1   TIME STEP   83
 SOLVING FOR ZETA FOR LAYER     1 ZONE     2

    1568 UPPER PART EQS.      1565 LOWER PART EQS.    BAND WIDTH + 1 =   58
 STRESS PERIOD=  1 TIMESTEP= 83 LAYER=  1 ZONE=  2 ACTIVE CELLS= 3133 NUMBER OF EQUATIONS=    3133
 
 SOLVING FOR HEAD 

 NO OUTPUT CONTROL FOR STRESS PERIOD    1   TIME STEP   84
 SOLVING FOR ZETA FOR LAYER     1 ZONE     2

    1658 UPPER PART EQS.      1645 LOWER PART EQS.    BAND WIDTH + 1 =   65
 STRESS PERIOD=  1 TIMESTEP= 84 LAYER=  1 ZONE=  2 ACTIVE CELLS= 3303 NUMBER OF EQUATIONS=    3303
 
 SOLVING FOR HEAD 

 NO OUTPUT CONTROL FOR STRESS PERIOD    1   TIME STEP   85
 SOLVING FOR ZETA FOR LAYER     1 ZONE     2

    1688 UPPER PART EQS.      1667 LOWER PART EQS.    BAND WIDTH + 1 =   73
 STRESS PERIOD=  1 TIMESTEP= 85 LAYER=  1 ZONE=  2 ACTIVE CELLS= 3355 NUMBER OF EQUATIONS=    3355
 
 SOLVING FOR HEAD 

 NO OUTPUT CONTROL FOR STRESS PERIOD    1   TIME STEP   86
 SOLVING FOR ZETA FOR LAYER     1 ZONE     2

    1736 UPPER PART EQS.      1757 LOWER PART EQS.    BAND WIDTH + 1 =   81
 STRESS PERIOD=  1 TIMESTEP= 86 LAYER=  1 ZONE=  2 ACTIVE CELLS= 3493 NUMBER OF EQUATIONS=    3493
 
 SOLVING FOR HEAD 

 NO OUTPUT CONTROL FOR STRESS PERIOD    1   TIME STEP   87
 SOLVING FOR ZETA FOR LAYER     1 ZONE     2

    1614 UPPER PART EQS.      1575 LOWER PART EQS.    BAND WIDTH + 1 =  114
 INSUFFICIENT MEMORY FOR DE4 SOLVER:
 MXBW MUST BE AT LEAST  114
 
 SOLVING FOR HEAD 

 NO OUTPUT CONTROL FOR STRESS PERIOD    1   TIME STEP   88
 SOLVING FOR ZETA FOR LAYER     1 ZONE     2

    1872 UPPER PART EQS.      1864 LOWER PART EQS.    BAND WIDTH + 1 =   78
 STRESS PERIOD=  1 TIMESTEP= 88 LAYER=  1 ZONE=  2 ACTIVE CELLS= 3736 NUMBER OF EQUATIONS=    3736
 
 SOLVING FOR HEAD 

 NO OUTPUT CONTROL FOR STRESS PERIOD    1   TIME STEP   89
 SOLVING FOR ZETA FOR LAYER     1 ZONE     2

    1627 UPPER PART EQS.      1630 LOWER PART EQS.    BAND WIDTH + 1 =   81
 STRESS PERIOD=  1 TIMESTEP= 89 LAYER=  1 ZONE=  2 ACTIVE CELLS= 3257 NUMBER OF EQUATIONS=    3257
 
 SOLVING FOR HEAD 

 NO OUTPUT CONTROL FOR STRESS PERIOD    1   TIME STEP   90
 SOLVING FOR ZETA FOR LAYER     1 ZONE     2

    1699 UPPER PART EQS.      1721 LOWER PART EQS.    BAND WIDTH + 1 =   81
 STRESS PERIOD=  1 TIMESTEP= 90 LAYER=  1 ZONE=  2 ACTIVE CELLS= 3420 NUMBER OF EQUATIONS=    3420
 
 SOLVING FOR HEAD 

 NO OUTPUT CONTROL FOR STRESS PERIOD    1   TIME STEP   91
 SOLVING FOR ZETA FOR LAYER     1 ZONE     2

    1810 UPPER PART EQS.      1794 LOWER PART EQS.    BAND WIDTH + 1 =   81
 STRESS PERIOD=  1 TIMESTEP= 91 LAYER=  1 ZONE=  2 ACTIVE CELLS= 3604 NUMBER OF EQUATIONS=    3604
 
 SOLVING FOR HEAD 

 NO OUTPUT CONTROL FOR STRESS PERIOD    1   TIME STEP   92
 SOLVING FOR ZETA FOR LAYER     1 ZONE     2

    1602 UPPER PART EQS.      1631 LOWER PART EQS.    BAND WIDTH + 1 =   84
 STRESS PERIOD=  1 TIMESTEP= 92 LAYER=  1 ZONE=  2 ACTIVE CELLS= 3233 NUMBER OF EQUATIONS=    3233
 
 SOLVING FOR HEAD 

 NO OUTPUT CONTROL FOR STRESS PERIOD    1   TIME STEP   93
 SOLVING FOR ZETA FOR LAYER     1 ZONE     2

    1567 UPPER PART EQS.      1549 LOWER PART EQS.    BAND WIDTH + 1 =   96
 STRESS PERIOD=  1 TIMESTEP= 93 LAYER=  1 ZONE=  2 ACTIVE CELLS= 3116 NUMBER OF EQUATIONS=    3116
 
 SOLVING FOR HEAD 

 NO OUTPUT CONTROL FOR STRESS PERIOD    1   TIME STEP   94
 SOLVING FOR ZETA FOR LAYER     1 ZONE     2

    1532 UPPER PART EQS.      1552 LOWER PART EQS.    BAND WIDTH + 1 =   97
 STRESS PERIOD=  1 TIMESTEP= 94 LAYER=  1 ZONE=  2 ACTIVE CELLS= 3084 NUMBER OF EQUATIONS=    3084
 
 SOLVING FOR HEAD 

 NO OUTPUT CONTROL FOR STRESS PERIOD    1   TIME STEP   95
 SOLVING FOR ZETA FOR LAYER     1 ZONE     2

    1645 UPPER PART EQS.      1613 LOWER PART EQS.    BAND WIDTH + 1 =  119
 INSUFFICIENT MEMORY FOR DE4 SOLVER:
 MXBW MUST BE AT LEAST  119
 
 SOLVING FOR HEAD 

 NO OUTPUT CONTROL FOR STRESS PERIOD    1   TIME STEP   96
 SOLVING FOR ZETA FOR LAYER     1 ZONE     2

    1889 UPPER PART EQS.      1904 LOWER PART EQS.    BAND WIDTH + 1 =   83
 STRESS PERIOD=  1 TIMESTEP= 96 LAYER=  1 ZONE=  2 ACTIVE CELLS= 3793 NUMBER OF EQUATIONS=    3793
 
 SOLVING FOR HEAD 

 NO OUTPUT CONTROL FOR STRESS PERIOD    1   TIME STEP   97
 SOLVING FOR ZETA FOR LAYER     1 ZONE     2

    1581 UPPER PART EQS.      1615 LOWER PART EQS.    BAND WIDTH + 1 =   66
 STRESS PERIOD=  1 TIMESTEP= 97 LAYER=  1 ZONE=  2 ACTIVE CELLS= 3196 NUMBER OF EQUATIONS=    3196
 
 SOLVING FOR HEAD 

 NO OUTPUT CONTROL FOR STRESS PERIOD    1   TIME STEP   98
 SOLVING FOR ZETA FOR LAYER     1 ZONE     2

    1729 UPPER PART EQS.      1704 LOWER PART EQS.    BAND WIDTH + 1 =   70
 STRESS PERIOD=  1 TIMESTEP= 98 LAYER=  1 ZONE=  2 ACTIVE CELLS= 3433 NUMBER OF EQUATIONS=    3433
 
 SOLVING FOR HEAD 

 NO OUTPUT CONTROL FOR STRESS PERIOD    1   TIME STEP   99
 SOLVING FOR ZETA FOR LAYER     1 ZONE     2

    1790 UPPER PART EQS.      1825 LOWER PART EQS.    BAND WIDTH + 1 =   68
 STRESS PERIOD=  1 TIMESTEP= 99 LAYER=  1 ZONE=  2 ACTIVE CELLS= 3615 NUMBER OF EQUATIONS=    3615
 
 SOLVING FOR HEAD 

 OUTPUT CONTROL FOR STRESS PERIOD    1   TIME STEP  100
    SAVE HEAD FOR ALL LAYERS
    PRINT BUDGET
 SOLVING FOR ZETA FOR LAYER     1 ZONE     2

    1804 UPPER PART EQS.      1770 LOWER PART EQS.    BAND WIDTH + 1 =   70
 STRESS PERIOD=  1 TIMESTEP=100 LAYER=  1 ZONE=  2 ACTIVE CELLS= 3574 NUMBER OF EQUATIONS=    3574
 UBUDSV SAVING "      ZETASRF  1" ON UNIT 55 AT TIME STEP100, STRESS PERIOD    1


                      VOLUMETRIC SWI ZONE BUDGET FOR ENTIRE MODEL
                     AT END OF TIME STEP  100 IN STRESS PERIOD   1
                                      ZONE     1
  -----------------------------------------------------------------------------------

        CUMULATIVE VOLUMES      L**3       RATES FOR THIS TIME STEP      L**3/T
        ------------------                 ------------------------

              IN:                                      IN:
              ---                                      ---
             BOUNDARIES = 22925207552.0000            BOUNDARIES =      640408.7500
          CONSTANT HEAD = 15835113472.0000         CONSTANT HEAD =        9352.2227
            ZONE CHANGE =173239795712.0000           ZONE CHANGE =     4084874.5000
       ZONE CHG TIP/TOE =       2.4072E+12      ZONE CHG TIP/TOE =    68598056.0000
            ZONE MIXING =           0.0000           ZONE MIXING =           0.0000

               TOTAL IN =       2.6192E+12              TOTAL IN =    73332688.0000

             OUT:                                     OUT:
             ----                                     ----
             BOUNDARIES =           0.0000            BOUNDARIES =           0.0000
          CONSTANT HEAD =       1.1430E+12         CONSTANT HEAD =     2751478.2500
            ZONE CHANGE =       2.5866E+12           ZONE CHANGE =    73102160.0000
       ZONE CHG TIP/TOE =   291070944.0000      ZONE CHG TIP/TOE =        4704.1177
            ZONE MIXING =           0.0000           ZONE MIXING =           0.0000

              TOTAL OUT =       3.7300E+12             TOTAL OUT =    75858344.0000

               IN - OUT =      -1.1108E+12              IN - OUT =    -2525656.0000

    PERCENT DISCREPANCY =         -34.99     PERCENT DISCREPANCY =          -3.39



                      VOLUMETRIC SWI ZONE BUDGET FOR ENTIRE MODEL
                     AT END OF TIME STEP  100 IN STRESS PERIOD   1
                                      ZONE     2
  -----------------------------------------------------------------------------------

        CUMULATIVE VOLUMES      L**3       RATES FOR THIS TIME STEP      L**3/T
        ------------------                 ------------------------

              IN:                                      IN:
              ---                                      ---
             BOUNDARIES =  7123742208.0000            BOUNDARIES =      182286.6562
          CONSTANT HEAD =       1.2064E+12         CONSTANT HEAD =     5430542.5000
            ZONE CHANGE =179510050816.0000           ZONE CHANGE =     4504433.5000
       ZONE CHG TIP/TOE =       1.9127E+14      ZONE CHG TIP/TOE =  5801883648.0000
            ZONE MIXING =           0.0000           ZONE MIXING =           0.0000

               TOTAL IN =       1.9267E+14              TOTAL IN =  5812000768.0000

             OUT:                                     OUT:
             ----                                     ----
             BOUNDARIES =           0.0000            BOUNDARIES =           0.0000
          CONSTANT HEAD =109199491072.0000         CONSTANT HEAD =     3511111.0000
            ZONE CHANGE =       1.9145E+14           ZONE CHANGE =  5805964288.0000
       ZONE CHG TIP/TOE =    13817003.0000      ZONE CHG TIP/TOE =         329.1463
            ZONE MIXING =           0.0000           ZONE MIXING =           0.0000

              TOTAL OUT =       1.9155E+14             TOTAL OUT =  5809476096.0000

               IN - OUT =       1.1109E+12              IN - OUT =     2524672.0000

    PERCENT DISCREPANCY =           0.58     PERCENT DISCREPANCY =           0.04


 HEAD WILL BE SAVED ON UNIT   51 AT END OF TIME STEP  100, STRESS PERIOD    1
1
  VOLUMETRIC BUDGET FOR ENTIRE MODEL AT END OF TIME STEP  100, STRESS PERIOD   1
  ------------------------------------------------------------------------------

     CUMULATIVE VOLUMES      L**3       RATES FOR THIS TIME STEP      L**3/T
     ------------------                 ------------------------

           IN:                                      IN:
           ---                                      ---
             STORAGE =           0.0000               STORAGE =           0.0000
       CONSTANT HEAD =       2.0921E+12         CONSTANT HEAD =    15162202.0000
          SWIADDTOCH =       1.5015E+12            SWIADDTOCH =    24351940.0000
            RECHARGE = 30048925696.0000              RECHARGE =      822695.3750

            TOTAL IN =       3.6237E+12              TOTAL IN =    40336840.0000

          OUT:                                     OUT:
          ----                                     ----
             STORAGE =           0.0000               STORAGE =           0.0000
       CONSTANT HEAD =       1.5893E+12         CONSTANT HEAD =    25714782.0000
          SWIADDTOCH =       2.0344E+12            SWIADDTOCH =    14622054.0000
            RECHARGE =           0.0000              RECHARGE =           0.0000

           TOTAL OUT =       3.6237E+12             TOTAL OUT =    40336836.0000

            IN - OUT =      524288.0000              IN - OUT =           4.0000

 PERCENT DISCREPANCY =           0.00     PERCENT DISCREPANCY =           0.00






         TIME SUMMARY AT END OF TIME STEP  100 IN STRESS PERIOD    1
                    SECONDS     MINUTES      HOURS       DAYS        YEARS
                    -----------------------------------------------------------
   TIME STEP LENGTH 3.15576E+07 5.25960E+05  8766.0      365.25      1.0000    
 STRESS PERIOD TIME 3.15576E+09 5.25960E+07 8.76600E+05  36525.      100.00    
         TOTAL TIME 3.15576E+09 5.25960E+07 8.76600E+05  36525.      100.00    
1
 
 SOLVING FOR HEAD 

 NO OUTPUT CONTROL FOR STRESS PERIOD    1   TIME STEP  101
 SOLVING FOR ZETA FOR LAYER     1 ZONE     2

    1778 UPPER PART EQS.      1795 LOWER PART EQS.    BAND WIDTH + 1 =   73
 STRESS PERIOD=  1 TIMESTEP=101 LAYER=  1 ZONE=  2 ACTIVE CELLS= 3573 NUMBER OF EQUATIONS=    3573
 
 SOLVING FOR HEAD 

 NO OUTPUT CONTROL FOR STRESS PERIOD    1   TIME STEP  102
 SOLVING FOR ZETA FOR LAYER     1 ZONE     2

    1751 UPPER PART EQS.      1757 LOWER PART EQS.    BAND WIDTH + 1 =   78
 STRESS PERIOD=  1 TIMESTEP=102 LAYER=  1 ZONE=  2 ACTIVE CELLS= 3508 NUMBER OF EQUATIONS=    3508
 
 SOLVING FOR HEAD 

 NO OUTPUT CONTROL FOR STRESS PERIOD    1   TIME STEP  103
 SOLVING FOR ZETA FOR LAYER     1 ZONE     2

    1746 UPPER PART EQS.      1753 LOWER PART EQS.    BAND WIDTH + 1 =   83
 STRESS PERIOD=  1 TIMESTEP=103 LAYER=  1 ZONE=  2 ACTIVE CELLS= 3499 NUMBER OF EQUATIONS=    3499
 
 SOLVING FOR HEAD 

 NO OUTPUT CONTROL FOR STRESS PERIOD    1   TIME STEP  104
 SOLVING FOR ZETA FOR LAYER     1 ZONE     2

    1850 UPPER PART EQS.      1838 LOWER PART EQS.    BAND WIDTH + 1 =   92
 STRESS PERIOD=  1 TIMESTEP=104 LAYER=  1 ZONE=  2 ACTIVE CELLS= 3688 NUMBER OF EQUATIONS=    3688
 
 SOLVING FOR HEAD 

 NO OUTPUT CONTROL FOR STRESS PERIOD    1   TIME STEP  105
 SOLVING FOR ZETA FOR LAYER     1 ZONE     2

    1671 UPPER PART EQS.      1675 LOWER PART EQS.    BAND WIDTH + 1 =   98
 STRESS PERIOD=  1 TIMESTEP=105 LAYER=  1 ZONE=  2 ACTIVE CELLS= 3346 NUMBER OF EQUATIONS=    3346
 
 SOLVING FOR HEAD 

 NO OUTPUT CONTROL FOR STRESS PERIOD    1   TIME STEP  106
 SOLVING FOR ZETA FOR LAYER     1 ZONE     2

    1723 UPPER PART EQS.      1723 LOWER PART EQS.    BAND WIDTH + 1 =  106
 INSUFFICIENT MEMORY FOR DE4 SOLVER:
 MXBW MUST BE AT LEAST  106
 
 SOLVING FOR HEAD 

 NO OUTPUT CONTROL FOR STRESS PERIOD    1   TIME STEP  107
 SOLVING FOR ZETA FOR LAYER     1 ZONE     2

    2026 UPPER PART EQS.      2028 LOWER PART EQS.    BAND WIDTH + 1 =   79
 STRESS PERIOD=  1 TIMESTEP=107 LAYER=  1 ZONE=  2 ACTIVE CELLS= 4054 NUMBER OF EQUATIONS=    4054
 
 SOLVING FOR HEAD 

 NO OUTPUT CONTROL FOR STRESS PERIOD    1   TIME STEP  108
 SOLVING FOR ZETA FOR LAYER     1 ZONE     2

    1624 UPPER PART EQS.      1608 LOWER PART EQS.    BAND WIDTH + 1 =   76
 STRESS PERIOD=  1 TIMESTEP=108 LAYER=  1 ZONE=  2 ACTIVE CELLS= 3232 NUMBER OF EQUATIONS=    3232
 
 SOLVING FOR HEAD 

 NO OUTPUT CONTROL FOR STRESS PERIOD    1   TIME STEP  109
 SOLVING FOR ZETA FOR LAYER     1 ZONE     2

    1783 UPPER PART EQS.      1806 LOWER PART EQS.    BAND WIDTH + 1 =   78
 STRESS PERIOD=  1 TIMESTEP=109 LAYER=  1 ZONE=  2 ACTIVE CELLS= 3589 NUMBER OF EQUATIONS=    3589
 
 SOLVING FOR HEAD 

 NO OUTPUT CONTROL FOR STRESS PERIOD    1   TIME STEP  110
 SOLVING FOR ZETA FOR LAYER     1 ZONE     2

    1638 UPPER PART EQS.      1629 LOWER PART EQS.    BAND WIDTH + 1 =   72
 STRESS PERIOD=  1 TIMESTEP=110 LAYER=  1 ZONE=  2 ACTIVE CELLS= 3267 NUMBER OF EQUATIONS=    3267
 
 SOLVING FOR HEAD 

 NO OUTPUT CONTROL FOR STRESS PERIOD    1   TIME STEP  111
 SOLVING FOR ZETA FOR LAYER     1 ZONE     2

    1564 UPPER PART EQS.      1584 LOWER PART EQS.    BAND WIDTH + 1 =   75
 STRESS PERIOD=  1 TIMESTEP=111 LAYER=  1 ZONE=  2 ACTIVE CELLS= 3148 NUMBER OF EQUATIONS=    3148
 
 SOLVING FOR HEAD 

 NO OUTPUT CONTROL FOR STRESS PERIOD    1   TIME STEP  112
 SOLVING FOR ZETA FOR LAYER     1 ZONE     2

    1632 UPPER PART EQS.      1623 LOWER PART EQS.    BAND WIDTH + 1 =   65
 STRESS PERIOD=  1 TIMESTEP=112 LAYER=  1 ZONE=  2 ACTIVE CELLS= 3255 NUMBER OF EQUATIONS=    3255
 
 SOLVING FOR HEAD 

 NO OUTPUT CONTROL FOR STRESS PERIOD    1   TIME STEP  113
 SOLVING FOR ZETA FOR LAYER     1 ZONE     2

    1639 UPPER PART EQS.      1661 LOWER PART EQS.    BAND WIDTH + 1 =   76
 STRESS PERIOD=  1 TIMESTEP=113 LAYER=  1 ZONE=  2 ACTIVE CELLS= 3300 NUMBER OF EQUATIONS=    3300
 
 SOLVING FOR HEAD 

 NO OUTPUT CONTROL FOR STRESS PERIOD    1   TIME STEP  114
 SOLVING FOR ZETA FOR LAYER     1 ZONE     2

    1868 UPPER PART EQS.      1813 LOWER PART EQS.    BAND WIDTH + 1 =  116
 INSUFFICIENT MEMORY FOR DE4 SOLVER:
 MXBW MUST BE AT LEAST  116
 
 SOLVING FOR HEAD 

 NO OUTPUT CONTROL FOR STRESS PERIOD    1   TIME STEP  115
 SOLVING FOR ZETA FOR LAYER     1 ZONE     2

    2061 UPPER PART EQS.      2092 LOWER PART EQS.    BAND WIDTH + 1 =   91
 STRESS PERIOD=  1 TIMESTEP=115 LAYER=  1 ZONE=  2 ACTIVE CELLS= 4153 NUMBER OF EQUATIONS=    4153
 
 SOLVING FOR HEAD 

 NO OUTPUT CONTROL FOR STRESS PERIOD    1   TIME STEP  116
 SOLVING FOR ZETA FOR LAYER     1 ZONE     2

    1524 UPPER PART EQS.      1516 LOWER PART EQS.    BAND WIDTH + 1 =   85
 STRESS PERIOD=  1 TIMESTEP=116 LAYER=  1 ZONE=  2 ACTIVE CELLS= 3040 NUMBER OF EQUATIONS=    3040
 
 SOLVING FOR HEAD 

 NO OUTPUT CONTROL FOR STRESS PERIOD    1   TIME STEP  117
 SOLVING FOR ZETA FOR LAYER     1 ZONE     2

    1719 UPPER PART EQS.      1715 LOWER PART EQS.    BAND WIDTH + 1 =   86
 STRESS PERIOD=  1 TIMESTEP=117 LAYER=  1 ZONE=  2 ACTIVE CELLS= 3434 NUMBER OF EQUATIONS=    3434
 
 SOLVING FOR HEAD 

 NO OUTPUT CONTROL FOR STRESS PERIOD    1   TIME STEP  118
 SOLVING FOR ZETA FOR LAYER     1 ZONE     2

    1749 UPPER PART EQS.      1739 LOWER PART EQS.    BAND WIDTH + 1 =   95
 STRESS PERIOD=  1 TIMESTEP=118 LAYER=  1 ZONE=  2 ACTIVE CELLS= 3488 NUMBER OF EQUATIONS=    3488
 
 SOLVING FOR HEAD 

 NO OUTPUT CONTROL FOR STRESS PERIOD    1   TIME STEP  119
 SOLVING FOR ZETA FOR LAYER     1 ZONE     2

    1711 UPPER PART EQS.      1739 LOWER PART EQS.    BAND WIDTH + 1 =  103
 STRESS PERIOD=  1 TIMESTEP=119 LAYER=  1 ZONE=  2 ACTIVE CELLS= 3450 NUMBER OF EQUATIONS=    3450
 
 SOLVING FOR HEAD 

 OUTPUT CONTROL FOR STRESS PERIOD    1   TIME STEP  120
    SAVE HEAD FOR ALL LAYERS
    PRINT BUDGET
 SOLVING FOR ZETA FOR LAYER     1 ZONE     2

    1759 UPPER PART EQS.      1741 LOWER PART EQS.    BAND WIDTH + 1 =  110
 INSUFFICIENT MEMORY FOR DE4 SOLVER:
 MXBW MUST BE AT LEAST  110
 UBUDSV SAVING "      ZETASRF  1" ON UNIT 55 AT TIME STEP120, STRESS PERIOD    1


                      VOLUMETRIC SWI ZONE BUDGET FOR ENTIRE MODEL
                     AT END OF TIME STEP  120 IN STRESS PERIOD   1
                                      ZONE     1
  -----------------------------------------------------------------------------------

        CUMULATIVE VOLUMES      L**3       RATES FOR THIS TIME STEP      L**3/T
        ------------------                 ------------------------

              IN:                                      IN:
              ---                                      ---
             BOUNDARIES = 27305816064.0000            BOUNDARIES =      591355.7500
          CONSTANT HEAD = 18346561536.0000         CONSTANT HEAD =      214524.0000
            ZONE CHANGE =200096825344.0000           ZONE CHANGE =           0.0000
       ZONE CHG TIP/TOE =       2.7514E+12      ZONE CHG TIP/TOE =         392.1027
            ZONE MIXING =           0.0000           ZONE MIXING =           0.0000

               TOTAL IN =       2.9971E+12              TOTAL IN =      806271.8750

             OUT:                                     OUT:
             ----                                     ----
             BOUNDARIES =           0.0000            BOUNDARIES =           0.0000
          CONSTANT HEAD =       1.3018E+12         CONSTANT HEAD =     2089588.2500
            ZONE CHANGE =       2.9575E+12           ZONE CHANGE =           0.0000
       ZONE CHG TIP/TOE =   352269728.0000      ZONE CHG TIP/TOE =         423.9464
            ZONE MIXING =           0.0000           ZONE MIXING =           0.0000

              TOTAL OUT =       4.2597E+12             TOTAL OUT =     2090012.2500

               IN - OUT =      -1.2625E+12              IN - OUT =    -1283740.3750

    PERCENT DISCREPANCY =         -34.80     PERCENT DISCREPANCY =         -88.65



                      VOLUMETRIC SWI ZONE BUDGET FOR ENTIRE MODEL
                     AT END OF TIME STEP  120 IN STRESS PERIOD   1
                                      ZONE     2
  -----------------------------------------------------------------------------------

        CUMULATIVE VOLUMES      L**3       RATES FOR THIS TIME STEP      L**3/T
        ------------------                 ------------------------

              IN:                                      IN:
              ---                                      ---
             BOUNDARIES =  8752919552.0000            BOUNDARIES =      231339.6406
          CONSTANT HEAD =       1.3858E+12         CONSTANT HEAD =     5823497.5000
            ZONE CHANGE =206203699200.0000           ZONE CHANGE =           0.0000
       ZONE CHG TIP/TOE =       2.2352E+14      ZONE CHG TIP/TOE =         423.9464
            ZONE MIXING =           0.0000           ZONE MIXING =           0.0000

               TOTAL IN =       2.2512E+14              TOTAL IN =     6055261.0000

             OUT:                                     OUT:
             ----                                     ----
             BOUNDARIES =           0.0000            BOUNDARIES =           0.0000
          CONSTANT HEAD =138457530368.0000         CONSTANT HEAD =     4771127.5000
            ZONE CHANGE =       2.2372E+14           ZONE CHANGE =           0.0000
       ZONE CHG TIP/TOE =    16381432.0000      ZONE CHG TIP/TOE =         392.1027
            ZONE MIXING =           0.0000           ZONE MIXING =           0.0000

              TOTAL OUT =       2.2386E+14             TOTAL OUT =     4771519.5000

               IN - OUT =       1.2626E+12              IN - OUT =     1283741.5000

    PERCENT DISCREPANCY =           0.56     PERCENT DISCREPANCY =          23.71


 HEAD WILL BE SAVED ON UNIT   51 AT END OF TIME STEP  120, STRESS PERIOD    1
1
  VOLUMETRIC BUDGET FOR ENTIRE MODEL AT END OF TIME STEP  120, STRESS PERIOD   1
  ------------------------------------------------------------------------------

     CUMULATIVE VOLUMES      L**3       RATES FOR THIS TIME STEP      L**3/T
     ------------------                 ------------------------

           IN:                                      IN:
           ---                                      ---
             STORAGE =           0.0000               STORAGE =           0.0000
       CONSTANT HEAD =       2.3702E+12         CONSTANT HEAD =    16004928.0000
          SWIADDTOCH =       1.7970E+12            SWIADDTOCH =     8488921.0000
            RECHARGE = 36058710016.0000              RECHARGE =      822695.3750

            TOTAL IN =       4.2032E+12              TOTAL IN =    25316544.0000

          OUT:                                     OUT:
          ----                                     ----
             STORAGE =           0.0000               STORAGE =           0.0000
       CONSTANT HEAD =       1.8959E+12         CONSTANT HEAD =     8191125.0000
          SWIADDTOCH =       2.3073E+12            SWIADDTOCH =    17125418.0000
            RECHARGE =           0.0000              RECHARGE =           0.0000

           TOTAL OUT =       4.2032E+12             TOTAL OUT =    25316544.0000

            IN - OUT =      524288.0000              IN - OUT =           0.0000

 PERCENT DISCREPANCY =           0.00     PERCENT DISCREPANCY =           0.00






         TIME SUMMARY AT END OF TIME STEP  120 IN STRESS PERIOD    1
                    SECONDS     MINUTES      HOURS       DAYS        YEARS
                    -----------------------------------------------------------
   TIME STEP LENGTH 3.15576E+07 5.25960E+05  8766.0      365.25      1.0000    
 STRESS PERIOD TIME 3.78691E+09 6.31152E+07 1.05192E+06  43830.      120.00    
         TOTAL TIME 3.78691E+09 6.31152E+07 1.05192E+06  43830.      120.00    
1
 
 SOLVING FOR HEAD 

 NO OUTPUT CONTROL FOR STRESS PERIOD    1   TIME STEP  121
 SOLVING FOR ZETA FOR LAYER     1 ZONE     2

    2002 UPPER PART EQS.      2006 LOWER PART EQS.    BAND WIDTH + 1 =   88
 STRESS PERIOD=  1 TIMESTEP=121 LAYER=  1 ZONE=  2 ACTIVE CELLS= 4008 NUMBER OF EQUATIONS=    4008
 
 SOLVING FOR HEAD 

 NO OUTPUT CONTROL FOR STRESS PERIOD    1   TIME STEP  122
 SOLVING FOR ZETA FOR LAYER     1 ZONE     2

    1743 UPPER PART EQS.      1734 LOWER PART EQS.    BAND WIDTH + 1 =   67
 STRESS PERIOD=  1 TIMESTEP=122 LAYER=  1 ZONE=  2 ACTIVE CELLS= 3477 NUMBER OF EQUATIONS=    3477
 
 SOLVING FOR HEAD 

 NO OUTPUT CONTROL FOR STRESS PERIOD    1   TIME STEP  123
 SOLVING FOR ZETA FOR LAYER     1 ZONE     2

    1725 UPPER PART EQS.      1750 LOWER PART EQS.    BAND WIDTH + 1 =   84
 STRESS PERIOD=  1 TIMESTEP=123 LAYER=  1 ZONE=  2 ACTIVE CELLS= 3475 NUMBER OF EQUATIONS=    3475
 
 SOLVING FOR HEAD 

 NO OUTPUT CONTROL FOR STRESS PERIOD    1   TIME STEP  124
 SOLVING FOR ZETA FOR LAYER     1 ZONE     2

    1698 UPPER PART EQS.      1661 LOWER PART EQS.    BAND WIDTH + 1 =  101
 STRESS PERIOD=  1 TIMESTEP=124 LAYER=  1 ZONE=  2 ACTIVE CELLS= 3359 NUMBER OF EQUATIONS=    3359
 
 SOLVING FOR HEAD 

 NO OUTPUT CONTROL FOR STRESS PERIOD    1   TIME STEP  125
 SOLVING FOR ZETA FOR LAYER     1 ZONE     2

    1766 UPPER PART EQS.      1775 LOWER PART EQS.    BAND WIDTH + 1 =  103
 STRESS PERIOD=  1 TIMESTEP=125 LAYER=  1 ZONE=  2 ACTIVE CELLS= 3541 NUMBER OF EQUATIONS=    3541
 
 SOLVING FOR HEAD 

 NO OUTPUT CONTROL FOR STRESS PERIOD    1   TIME STEP  126
 SOLVING FOR ZETA FOR LAYER     1 ZONE     2

    1843 UPPER PART EQS.      1849 LOWER PART EQS.    BAND WIDTH + 1 =   91
 STRESS PERIOD=  1 TIMESTEP=126 LAYER=  1 ZONE=  2 ACTIVE CELLS= 3692 NUMBER OF EQUATIONS=    3692
 
 SOLVING FOR HEAD 

 NO OUTPUT CONTROL FOR STRESS PERIOD    1   TIME STEP  127
 SOLVING FOR ZETA FOR LAYER     1 ZONE     2

    1901 UPPER PART EQS.      1893 LOWER PART EQS.    BAND WIDTH + 1 =   89
 STRESS PERIOD=  1 TIMESTEP=127 LAYER=  1 ZONE=  2 ACTIVE CELLS= 3794 NUMBER OF EQUATIONS=    3794
 
 SOLVING FOR HEAD 

 NO OUTPUT CONTROL FOR STRESS PERIOD    1   TIME STEP  128
 SOLVING FOR ZETA FOR LAYER     1 ZONE     2

    1861 UPPER PART EQS.      1866 LOWER PART EQS.    BAND WIDTH + 1 =   95
 STRESS PERIOD=  1 TIMESTEP=128 LAYER=  1 ZONE=  2 ACTIVE CELLS= 3727 NUMBER OF EQUATIONS=    3727
 
 SOLVING FOR HEAD 

 NO OUTPUT CONTROL FOR STRESS PERIOD    1   TIME STEP  129
 SOLVING FOR ZETA FOR LAYER     1 ZONE     2

    1717 UPPER PART EQS.      1749 LOWER PART EQS.    BAND WIDTH + 1 =   98
 STRESS PERIOD=  1 TIMESTEP=129 LAYER=  1 ZONE=  2 ACTIVE CELLS= 3466 NUMBER OF EQUATIONS=    3466
 
 SOLVING FOR HEAD 

 NO OUTPUT CONTROL FOR STRESS PERIOD    1   TIME STEP  130
 SOLVING FOR ZETA FOR LAYER     1 ZONE     2

    1616 UPPER PART EQS.      1597 LOWER PART EQS.    BAND WIDTH + 1 =   90
 STRESS PERIOD=  1 TIMESTEP=130 LAYER=  1 ZONE=  2 ACTIVE CELLS= 3213 NUMBER OF EQUATIONS=    3213
 
 SOLVING FOR HEAD 

 NO OUTPUT CONTROL FOR STRESS PERIOD    1   TIME STEP  131
 SOLVING FOR ZETA FOR LAYER     1 ZONE     2

    1658 UPPER PART EQS.      1697 LOWER PART EQS.    BAND WIDTH + 1 =   99
 STRESS PERIOD=  1 TIMESTEP=131 LAYER=  1 ZONE=  2 ACTIVE CELLS= 3355 NUMBER OF EQUATIONS=    3355
 
 SOLVING FOR HEAD 

 NO OUTPUT CONTROL FOR STRESS PERIOD    1   TIME STEP  132
 SOLVING FOR ZETA FOR LAYER     1 ZONE     2

    1662 UPPER PART EQS.      1637 LOWER PART EQS.    BAND WIDTH + 1 =  108
 INSUFFICIENT MEMORY FOR DE4 SOLVER:
 MXBW MUST BE AT LEAST  108
 
 SOLVING FOR HEAD 

 NO OUTPUT CONTROL FOR STRESS PERIOD    1   TIME STEP  133
 SOLVING FOR ZETA FOR LAYER     1 ZONE     2

    1961 UPPER PART EQS.      1969 LOWER PART EQS.    BAND WIDTH + 1 =   92
 STRESS PERIOD=  1 TIMESTEP=133 LAYER=  1 ZONE=  2 ACTIVE CELLS= 3930 NUMBER OF EQUATIONS=    3930
 
 SOLVING FOR HEAD 

 NO OUTPUT CONTROL FOR STRESS PERIOD    1   TIME STEP  134
 SOLVING FOR ZETA FOR LAYER     1 ZONE     2

    1445 UPPER PART EQS.      1464 LOWER PART EQS.    BAND WIDTH + 1 =   58
 STRESS PERIOD=  1 TIMESTEP=134 LAYER=  1 ZONE=  2 ACTIVE CELLS= 2909 NUMBER OF EQUATIONS=    2909
 
 SOLVING FOR HEAD 

 NO OUTPUT CONTROL FOR STRESS PERIOD    1   TIME STEP  135
 SOLVING FOR ZETA FOR LAYER     1 ZONE     2

    1631 UPPER PART EQS.      1626 LOWER PART EQS.    BAND WIDTH + 1 =   69
 STRESS PERIOD=  1 TIMESTEP=135 LAYER=  1 ZONE=  2 ACTIVE CELLS= 3257 NUMBER OF EQUATIONS=    3257
 
 SOLVING FOR HEAD 

 NO OUTPUT CONTROL FOR STRESS PERIOD    1   TIME STEP  136
 SOLVING FOR ZETA FOR LAYER     1 ZONE     2

    1655 UPPER PART EQS.      1678 LOWER PART EQS.    BAND WIDTH + 1 =   75
 STRESS PERIOD=  1 TIMESTEP=136 LAYER=  1 ZONE=  2 ACTIVE CELLS= 3333 NUMBER OF EQUATIONS=    3333
 
 SOLVING FOR HEAD 

 NO OUTPUT CONTROL FOR STRESS PERIOD    1   TIME STEP  137
 SOLVING FOR ZETA FOR LAYER     1 ZONE     2

    1647 UPPER PART EQS.      1643 LOWER PART EQS.    BAND WIDTH + 1 =   71
 STRESS PERIOD=  1 TIMESTEP=137 LAYER=  1 ZONE=  2 ACTIVE CELLS= 3290 NUMBER OF EQUATIONS=    3290
 
 SOLVING FOR HEAD 

 NO OUTPUT CONTROL FOR STRESS PERIOD    1   TIME STEP  138
 SOLVING FOR ZETA FOR LAYER     1 ZONE     2

    1623 UPPER PART EQS.      1641 LOWER PART EQS.    BAND WIDTH + 1 =   69
 STRESS PERIOD=  1 TIMESTEP=138 LAYER=  1 ZONE=  2 ACTIVE CELLS= 3264 NUMBER OF EQUATIONS=    3264
 
 SOLVING FOR HEAD 

 NO OUTPUT CONTROL FOR STRESS PERIOD    1   TIME STEP  139
 SOLVING FOR ZETA FOR LAYER     1 ZONE     2

    1634 UPPER PART EQS.      1636 LOWER PART EQS.    BAND WIDTH + 1 =   68
 STRESS PERIOD=  1 TIMESTEP=139 LAYER=  1 ZONE=  2 ACTIVE CELLS= 3270 NUMBER OF EQUATIONS=    3270
 
 SOLVING FOR HEAD 

 OUTPUT CONTROL FOR STRESS PERIOD    1   TIME STEP  140
    SAVE HEAD FOR ALL LAYERS
    PRINT BUDGET
 SOLVING FOR ZETA FOR LAYER     1 ZONE     2

    1537 UPPER PART EQS.      1547 LOWER PART EQS.    BAND WIDTH + 1 =   77
 STRESS PERIOD=  1 TIMESTEP=140 LAYER=  1 ZONE=  2 ACTIVE CELLS= 3084 NUMBER OF EQUATIONS=    3084
 UBUDSV SAVING "      ZETASRF  1" ON UNIT 55 AT TIME STEP140, STRESS PERIOD    1


                      VOLUMETRIC SWI ZONE BUDGET FOR ENTIRE MODEL
                     AT END OF TIME STEP  140 IN STRESS PERIOD   1
                                      ZONE     1
  -----------------------------------------------------------------------------------

        CUMULATIVE VOLUMES      L**3       RATES FOR THIS TIME STEP      L**3/T
        ------------------                 ------------------------

              IN:                                      IN:
              ---                                      ---
             BOUNDARIES = 31639889920.0000            BOUNDARIES =      529342.1875
          CONSTANT HEAD = 19386660864.0000         CONSTANT HEAD =      142071.3906
            ZONE CHANGE =232431845376.0000           ZONE CHANGE =     4616229.0000
       ZONE CHG TIP/TOE =       3.2065E+12      ZONE CHG TIP/TOE =    89998928.0000
            ZONE MIXING =           0.0000           ZONE MIXING =           0.0000

               TOTAL IN =       3.4900E+12              TOTAL IN =    95286568.0000

             OUT:                                     OUT:
             ----                                     ----
             BOUNDARIES =           0.0000            BOUNDARIES =           0.0000
          CONSTANT HEAD =       1.4845E+12         CONSTANT HEAD =     2628283.7500
            ZONE CHANGE =       3.4435E+12           ZONE CHANGE =    94749832.0000
       ZONE CHG TIP/TOE =   451391648.0000      ZONE CHG TIP/TOE =       19552.5801
            ZONE MIXING =           0.0000           ZONE MIXING =           0.0000

              TOTAL OUT =       4.9284E+12             TOTAL OUT =    97397664.0000

               IN - OUT =      -1.4384E+12              IN - OUT =    -2111096.0000

    PERCENT DISCREPANCY =         -34.17     PERCENT DISCREPANCY =          -2.19



                      VOLUMETRIC SWI ZONE BUDGET FOR ENTIRE MODEL
                     AT END OF TIME STEP  140 IN STRESS PERIOD   1
                                      ZONE     2
  -----------------------------------------------------------------------------------

        CUMULATIVE VOLUMES      L**3       RATES FOR THIS TIME STEP      L**3/T
        ------------------                 ------------------------

              IN:                                      IN:
              ---                                      ---
             BOUNDARIES = 10428635136.0000            BOUNDARIES =      293353.1875
          CONSTANT HEAD =       1.5856E+12         CONSTANT HEAD =     5176906.0000
            ZONE CHANGE =236996296704.0000           ZONE CHANGE =     4751211.5000
       ZONE CHG TIP/TOE =       2.6563E+14      ZONE CHG TIP/TOE =  9788162048.0000
            ZONE MIXING =           0.0000           ZONE MIXING =           0.0000

               TOTAL IN =       2.6746E+14              TOTAL IN =  9798383616.0000

             OUT:                                     OUT:
             ----                                     ----
             BOUNDARIES =           0.0000            BOUNDARIES =           0.0000
          CONSTANT HEAD =162555953152.0000         CONSTANT HEAD =     3513389.0000
            ZONE CHANGE =       2.6586E+14           ZONE CHANGE =  9792758784.0000
       ZONE CHG TIP/TOE =    18931990.0000      ZONE CHG TIP/TOE =         307.5276
            ZONE MIXING =           0.0000           ZONE MIXING =           0.0000

              TOTAL OUT =       2.6602E+14             TOTAL OUT =  9796272128.0000

               IN - OUT =       1.4385E+12              IN - OUT =     2111488.0000

    PERCENT DISCREPANCY =           0.54     PERCENT DISCREPANCY =           0.02


 HEAD WILL BE SAVED ON UNIT   51 AT END OF TIME STEP  140, STRESS PERIOD    1
1
  VOLUMETRIC BUDGET FOR ENTIRE MODEL AT END OF TIME STEP  140, STRESS PERIOD   1
  ------------------------------------------------------------------------------

     CUMULATIVE VOLUMES      L**3       RATES FOR THIS TIME STEP      L**3/T
     ------------------                 ------------------------

           IN:                                      IN:
           ---                                      ---
             STORAGE =           0.0000               STORAGE =           0.0000
       CONSTANT HEAD =       2.6576E+12         CONSTANT HEAD =    13237224.0000
          SWIADDTOCH =       2.0188E+12            SWIADDTOCH =     4056656.5000
            RECHARGE = 42068525056.0000              RECHARGE =      822695.3750

            TOTAL IN =       4.7185E+12              TOTAL IN =    18116576.0000

          OUT:                                     OUT:
          ----                                     ----
             STORAGE =           0.0000               STORAGE =           0.0000
       CONSTANT HEAD =       2.1239E+12         CONSTANT HEAD =     4661316.5000
          SWIADDTOCH =       2.5946E+12            SWIADDTOCH =    13455260.0000
            RECHARGE =           0.0000              RECHARGE =           0.0000

           TOTAL OUT =       4.7185E+12             TOTAL OUT =    18116576.0000

            IN - OUT =     2097152.0000              IN - OUT =           0.0000

 PERCENT DISCREPANCY =           0.00     PERCENT DISCREPANCY =           0.00






         TIME SUMMARY AT END OF TIME STEP  140 IN STRESS PERIOD    1
                    SECONDS     MINUTES      HOURS       DAYS        YEARS
                    -----------------------------------------------------------
   TIME STEP LENGTH 3.15576E+07 5.25960E+05  8766.0      365.25      1.0000    
 STRESS PERIOD TIME 4.41806E+09 7.36344E+07 1.22724E+06  51135.      140.00    
         TOTAL TIME 4.41806E+09 7.36344E+07 1.22724E+06  51135.      140.00    
1
 
 SOLVING FOR HEAD 

 NO OUTPUT CONTROL FOR STRESS PERIOD    1   TIME STEP  141
 SOLVING FOR ZETA FOR LAYER     1 ZONE     2

    1562 UPPER PART EQS.      1526 LOWER PART EQS.    BAND WIDTH + 1 =   82
 STRESS PERIOD=  1 TIMESTEP=141 LAYER=  1 ZONE=  2 ACTIVE CELLS= 3088 NUMBER OF EQUATIONS=    3088
 
 SOLVING FOR HEAD 

 NO OUTPUT CONTROL FOR STRESS PERIOD    1   TIME STEP  142
 SOLVING FOR ZETA FOR LAYER     1 ZONE     2

    1591 UPPER PART EQS.      1626 LOWER PART EQS.    BAND WIDTH + 1 =   86
 STRESS PERIOD=  1 TIMESTEP=142 LAYER=  1 ZONE=  2 ACTIVE CELLS= 3217 NUMBER OF EQUATIONS=    3217
 
 SOLVING FOR HEAD 

 NO OUTPUT CONTROL FOR STRESS PERIOD    1   TIME STEP  143
 SOLVING FOR ZETA FOR LAYER     1 ZONE     2

    1593 UPPER PART EQS.      1552 LOWER PART EQS.    BAND WIDTH + 1 =   91
 STRESS PERIOD=  1 TIMESTEP=143 LAYER=  1 ZONE=  2 ACTIVE CELLS= 3145 NUMBER OF EQUATIONS=    3145
 
 SOLVING FOR HEAD 

 NO OUTPUT CONTROL FOR STRESS PERIOD    1   TIME STEP  144
 SOLVING FOR ZETA FOR LAYER     1 ZONE     2

    1494 UPPER PART EQS.      1535 LOWER PART EQS.    BAND WIDTH + 1 =   95
 STRESS PERIOD=  1 TIMESTEP=144 LAYER=  1 ZONE=  2 ACTIVE CELLS= 3029 NUMBER OF EQUATIONS=    3029
 
 SOLVING FOR HEAD 

 NO OUTPUT CONTROL FOR STRESS PERIOD    1   TIME STEP  145
 SOLVING FOR ZETA FOR LAYER     1 ZONE     2

    1641 UPPER PART EQS.      1590 LOWER PART EQS.    BAND WIDTH + 1 =   98
 STRESS PERIOD=  1 TIMESTEP=145 LAYER=  1 ZONE=  2 ACTIVE CELLS= 3231 NUMBER OF EQUATIONS=    3231
 
 SOLVING FOR HEAD 

 NO OUTPUT CONTROL FOR STRESS PERIOD    1   TIME STEP  146
 SOLVING FOR ZETA FOR LAYER     1 ZONE     2

    1616 UPPER PART EQS.      1663 LOWER PART EQS.    BAND WIDTH + 1 =   95
 STRESS PERIOD=  1 TIMESTEP=146 LAYER=  1 ZONE=  2 ACTIVE CELLS= 3279 NUMBER OF EQUATIONS=    3279
 
 SOLVING FOR HEAD 

 NO OUTPUT CONTROL FOR STRESS PERIOD    1   TIME STEP  147
 SOLVING FOR ZETA FOR LAYER     1 ZONE     2

    1768 UPPER PART EQS.      1699 LOWER PART EQS.    BAND WIDTH + 1 =  110
 INSUFFICIENT MEMORY FOR DE4 SOLVER:
 MXBW MUST BE AT LEAST  110
 
 SOLVING FOR HEAD 

 NO OUTPUT CONTROL FOR STRESS PERIOD    1   TIME STEP  148
 SOLVING FOR ZETA FOR LAYER     1 ZONE     2

    2020 UPPER PART EQS.      2044 LOWER PART EQS.    BAND WIDTH + 1 =   74
 STRESS PERIOD=  1 TIMESTEP=148 LAYER=  1 ZONE=  2 ACTIVE CELLS= 4064 NUMBER OF EQUATIONS=    4064
 
 SOLVING FOR HEAD 

 NO OUTPUT CONTROL FOR STRESS PERIOD    1   TIME STEP  149
 SOLVING FOR ZETA FOR LAYER     1 ZONE     2

    1492 UPPER PART EQS.      1459 LOWER PART EQS.    BAND WIDTH + 1 =   67
 STRESS PERIOD=  1 TIMESTEP=149 LAYER=  1 ZONE=  2 ACTIVE CELLS= 2951 NUMBER OF EQUATIONS=    2951
 
 SOLVING FOR HEAD 

 NO OUTPUT CONTROL FOR STRESS PERIOD    1   TIME STEP  150
 SOLVING FOR ZETA FOR LAYER     1 ZONE     2

    1595 UPPER PART EQS.      1644 LOWER PART EQS.    BAND WIDTH + 1 =   78
 STRESS PERIOD=  1 TIMESTEP=150 LAYER=  1 ZONE=  2 ACTIVE CELLS= 3239 NUMBER OF EQUATIONS=    3239
 
 SOLVING FOR HEAD 

 NO OUTPUT CONTROL FOR STRESS PERIOD    1   TIME STEP  151
 SOLVING FOR ZETA FOR LAYER     1 ZONE     2

    1646 UPPER PART EQS.      1617 LOWER PART EQS.    BAND WIDTH + 1 =   89
 STRESS PERIOD=  1 TIMESTEP=151 LAYER=  1 ZONE=  2 ACTIVE CELLS= 3263 NUMBER OF EQUATIONS=    3263
 
 SOLVING FOR HEAD 

 NO OUTPUT CONTROL FOR STRESS PERIOD    1   TIME STEP  152
 SOLVING FOR ZETA FOR LAYER     1 ZONE     2

    1666 UPPER PART EQS.      1666 LOWER PART EQS.    BAND WIDTH + 1 =   97
 STRESS PERIOD=  1 TIMESTEP=152 LAYER=  1 ZONE=  2 ACTIVE CELLS= 3332 NUMBER OF EQUATIONS=    3332
 
 SOLVING FOR HEAD 

 NO OUTPUT CONTROL FOR STRESS PERIOD    1   TIME STEP  153
 SOLVING FOR ZETA FOR LAYER     1 ZONE     2

    1656 UPPER PART EQS.      1646 LOWER PART EQS.    BAND WIDTH + 1 =   95
 STRESS PERIOD=  1 TIMESTEP=153 LAYER=  1 ZONE=  2 ACTIVE CELLS= 3302 NUMBER OF EQUATIONS=    3302
 
 SOLVING FOR HEAD 

 NO OUTPUT CONTROL FOR STRESS PERIOD    1   TIME STEP  154
 SOLVING FOR ZETA FOR LAYER     1 ZONE     2

    1694 UPPER PART EQS.      1713 LOWER PART EQS.    BAND WIDTH + 1 =   97
 STRESS PERIOD=  1 TIMESTEP=154 LAYER=  1 ZONE=  2 ACTIVE CELLS= 3407 NUMBER OF EQUATIONS=    3407
 
 SOLVING FOR HEAD 

 NO OUTPUT CONTROL FOR STRESS PERIOD    1   TIME STEP  155
 SOLVING FOR ZETA FOR LAYER     1 ZONE     2

    1741 UPPER PART EQS.      1698 LOWER PART EQS.    BAND WIDTH + 1 =   95
 STRESS PERIOD=  1 TIMESTEP=155 LAYER=  1 ZONE=  2 ACTIVE CELLS= 3439 NUMBER OF EQUATIONS=    3439
 
 SOLVING FOR HEAD 

 NO OUTPUT CONTROL FOR STRESS PERIOD    1   TIME STEP  156
 SOLVING FOR ZETA FOR LAYER     1 ZONE     2

    1719 UPPER PART EQS.      1767 LOWER PART EQS.    BAND WIDTH + 1 =  100
 STRESS PERIOD=  1 TIMESTEP=156 LAYER=  1 ZONE=  2 ACTIVE CELLS= 3486 NUMBER OF EQUATIONS=    3486
 
 SOLVING FOR HEAD 

 NO OUTPUT CONTROL FOR STRESS PERIOD    1   TIME STEP  157
 SOLVING FOR ZETA FOR LAYER     1 ZONE     2

    1863 UPPER PART EQS.      1811 LOWER PART EQS.    BAND WIDTH + 1 =   99
 STRESS PERIOD=  1 TIMESTEP=157 LAYER=  1 ZONE=  2 ACTIVE CELLS= 3674 NUMBER OF EQUATIONS=    3674
 
 SOLVING FOR HEAD 

 NO OUTPUT CONTROL FOR STRESS PERIOD    1   TIME STEP  158
 SOLVING FOR ZETA FOR LAYER     1 ZONE     2

    1713 UPPER PART EQS.      1782 LOWER PART EQS.    BAND WIDTH + 1 =  113
 INSUFFICIENT MEMORY FOR DE4 SOLVER:
 MXBW MUST BE AT LEAST  113
 
 SOLVING FOR HEAD 

 NO OUTPUT CONTROL FOR STRESS PERIOD    1   TIME STEP  159
 SOLVING FOR ZETA FOR LAYER     1 ZONE     2

    2064 UPPER PART EQS.      2089 LOWER PART EQS.    BAND WIDTH + 1 =   84
 STRESS PERIOD=  1 TIMESTEP=159 LAYER=  1 ZONE=  2 ACTIVE CELLS= 4153 NUMBER OF EQUATIONS=    4153
 
 SOLVING FOR HEAD 

 OUTPUT CONTROL FOR STRESS PERIOD    1   TIME STEP  160
    SAVE HEAD FOR ALL LAYERS
    PRINT BUDGET
 SOLVING FOR ZETA FOR LAYER     1 ZONE     2

    1495 UPPER PART EQS.      1476 LOWER PART EQS.    BAND WIDTH + 1 =   58
 STRESS PERIOD=  1 TIMESTEP=160 LAYER=  1 ZONE=  2 ACTIVE CELLS= 2971 NUMBER OF EQUATIONS=    2971
 UBUDSV SAVING "      ZETASRF  1" ON UNIT 55 AT TIME STEP160, STRESS PERIOD    1


                      VOLUMETRIC SWI ZONE BUDGET FOR ENTIRE MODEL
                     AT END OF TIME STEP  160 IN STRESS PERIOD   1
                                      ZONE     1
  -----------------------------------------------------------------------------------

        CUMULATIVE VOLUMES      L**3       RATES FOR THIS TIME STEP      L**3/T
        ------------------                 ------------------------

              IN:                                      IN:
              ---                                      ---
             BOUNDARIES = 35925770240.0000            BOUNDARIES =      580111.6875
          CONSTANT HEAD = 28085475328.0000         CONSTANT HEAD =      304928.1250
            ZONE CHANGE =259055714304.0000           ZONE CHANGE =     2074471.8750
       ZONE CHG TIP/TOE =       3.6964E+12      ZONE CHG TIP/TOE =   101056472.0000
            ZONE MIXING =           0.0000           ZONE MIXING =           0.0000

               TOTAL IN =       4.0195E+12              TOTAL IN =   104015984.0000

             OUT:                                     OUT:
             ----                                     ----
             BOUNDARIES =           0.0000            BOUNDARIES =           0.0000
          CONSTANT HEAD =       1.6989E+12         CONSTANT HEAD =     1437069.8750
            ZONE CHANGE =       3.9634E+12           ZONE CHANGE =   104019432.0000
       ZONE CHG TIP/TOE =   493844928.0000      ZONE CHG TIP/TOE =        2864.6875
            ZONE MIXING =           0.0000           ZONE MIXING =           0.0000

              TOTAL OUT =       5.6628E+12             TOTAL OUT =   105459368.0000

               IN - OUT =      -1.6433E+12              IN - OUT =    -1443384.0000

    PERCENT DISCREPANCY =         -33.94     PERCENT DISCREPANCY =          -1.38



                      VOLUMETRIC SWI ZONE BUDGET FOR ENTIRE MODEL
                     AT END OF TIME STEP  160 IN STRESS PERIOD   1
                                      ZONE     2
  -----------------------------------------------------------------------------------

        CUMULATIVE VOLUMES      L**3       RATES FOR THIS TIME STEP      L**3/T
        ------------------                 ------------------------

              IN:                                      IN:
              ---                                      ---
             BOUNDARIES = 12152549376.0000            BOUNDARIES =      242583.7031
          CONSTANT HEAD =       1.8178E+12         CONSTANT HEAD =     2997358.0000
            ZONE CHANGE =266945101824.0000           ZONE CHANGE =     2963270.2500
       ZONE CHG TIP/TOE =       3.0999E+14      ZONE CHG TIP/TOE =  2599484160.0000
            ZONE MIXING =           0.0000           ZONE MIXING =           0.0000

               TOTAL IN =       3.1209E+14              TOTAL IN =  2605687296.0000

             OUT:                                     OUT:
             ----                                     ----
             BOUNDARIES =           0.0000            BOUNDARIES =           0.0000
          CONSTANT HEAD =194999369728.0000         CONSTANT HEAD =     2687911.5000
            ZONE CHANGE =       3.1025E+14           ZONE CHANGE =  2601555712.0000
       ZONE CHG TIP/TOE =    21273600.0000      ZONE CHG TIP/TOE =         309.6933
            ZONE MIXING =           0.0000           ZONE MIXING =           0.0000

              TOTAL OUT =       3.1044E+14             TOTAL OUT =  2604243968.0000

               IN - OUT =       1.6432E+12              IN - OUT =     1443328.0000

    PERCENT DISCREPANCY =           0.53     PERCENT DISCREPANCY =           0.06


 HEAD WILL BE SAVED ON UNIT   51 AT END OF TIME STEP  160, STRESS PERIOD    1
1
  VOLUMETRIC BUDGET FOR ENTIRE MODEL AT END OF TIME STEP  160, STRESS PERIOD   1
  ------------------------------------------------------------------------------

     CUMULATIVE VOLUMES      L**3       RATES FOR THIS TIME STEP      L**3/T
     ------------------                 ------------------------

           IN:                                      IN:
           ---                                      ---
             STORAGE =           0.0000               STORAGE =           0.0000
       CONSTANT HEAD =       3.1522E+12         CONSTANT HEAD =    11055473.0000
          SWIADDTOCH =       2.2384E+12            SWIADDTOCH =      407513.3750
            RECHARGE = 48078340096.0000              RECHARGE =      822695.3750

            TOTAL IN =       5.4386E+12              TOTAL IN =    12285681.0000

          OUT:                                     OUT:
          ----                                     ----
             STORAGE =           0.0000               STORAGE =           0.0000
       CONSTANT HEAD =       2.3598E+12         CONSTANT HEAD =     1482598.5000
          SWIADDTOCH =       3.0788E+12            SWIADDTOCH =    10803083.0000
            RECHARGE =           0.0000              RECHARGE =           0.0000

           TOTAL OUT =       5.4386E+12             TOTAL OUT =    12285682.0000

            IN - OUT =     2097152.0000              IN - OUT =          -1.0000

 PERCENT DISCREPANCY =           0.00     PERCENT DISCREPANCY =          -0.00






         TIME SUMMARY AT END OF TIME STEP  160 IN STRESS PERIOD    1
                    SECONDS     MINUTES      HOURS       DAYS        YEARS
                    -----------------------------------------------------------
   TIME STEP LENGTH 3.15576E+07 5.25960E+05  8766.0      365.25      1.0000    
 STRESS PERIOD TIME 5.04922E+09 8.41536E+07 1.40256E+06  58440.      160.00    
         TOTAL TIME 5.04922E+09 8.41536E+07 1.40256E+06  58440.      160.00    
1
 
 SOLVING FOR HEAD 

 NO OUTPUT CONTROL FOR STRESS PERIOD    1   TIME STEP  161
 SOLVING FOR ZETA FOR LAYER     1 ZONE     2

    1629 UPPER PART EQS.      1659 LOWER PART EQS.    BAND WIDTH + 1 =   75
 STRESS PERIOD=  1 TIMESTEP=161 LAYER=  1 ZONE=  2 ACTIVE CELLS= 3288 NUMBER OF EQUATIONS=    3288
 
 SOLVING FOR HEAD 

 NO OUTPUT CONTROL FOR STRESS PERIOD    1   TIME STEP  162
 SOLVING FOR ZETA FOR LAYER     1 ZONE     2

    1701 UPPER PART EQS.      1669 LOWER PART EQS.    BAND WIDTH + 1 =   93
 STRESS PERIOD=  1 TIMESTEP=162 LAYER=  1 ZONE=  2 ACTIVE CELLS= 3370 NUMBER OF EQUATIONS=    3370
 
 SOLVING FOR HEAD 

 NO OUTPUT CONTROL FOR STRESS PERIOD    1   TIME STEP  163
 SOLVING FOR ZETA FOR LAYER     1 ZONE     2

    1692 UPPER PART EQS.      1733 LOWER PART EQS.    BAND WIDTH + 1 =  101
 STRESS PERIOD=  1 TIMESTEP=163 LAYER=  1 ZONE=  2 ACTIVE CELLS= 3425 NUMBER OF EQUATIONS=    3425
 
 SOLVING FOR HEAD 

 NO OUTPUT CONTROL FOR STRESS PERIOD    1   TIME STEP  164
 SOLVING FOR ZETA FOR LAYER     1 ZONE     2

    1684 UPPER PART EQS.      1646 LOWER PART EQS.    BAND WIDTH + 1 =  101
 STRESS PERIOD=  1 TIMESTEP=164 LAYER=  1 ZONE=  2 ACTIVE CELLS= 3330 NUMBER OF EQUATIONS=    3330
 
 SOLVING FOR HEAD 

 NO OUTPUT CONTROL FOR STRESS PERIOD    1   TIME STEP  165
 SOLVING FOR ZETA FOR LAYER     1 ZONE     2

    1470 UPPER PART EQS.      1499 LOWER PART EQS.    BAND WIDTH + 1 =   81
 STRESS PERIOD=  1 TIMESTEP=165 LAYER=  1 ZONE=  2 ACTIVE CELLS= 2969 NUMBER OF EQUATIONS=    2969
 
 SOLVING FOR HEAD 

 NO OUTPUT CONTROL FOR STRESS PERIOD    1   TIME STEP  166
 SOLVING FOR ZETA FOR LAYER     1 ZONE     2

    1583 UPPER PART EQS.      1558 LOWER PART EQS.    BAND WIDTH + 1 =   99
 STRESS PERIOD=  1 TIMESTEP=166 LAYER=  1 ZONE=  2 ACTIVE CELLS= 3141 NUMBER OF EQUATIONS=    3141
 
 SOLVING FOR HEAD 

 NO OUTPUT CONTROL FOR STRESS PERIOD    1   TIME STEP  167
 SOLVING FOR ZETA FOR LAYER     1 ZONE     2

    1551 UPPER PART EQS.      1562 LOWER PART EQS.    BAND WIDTH + 1 =  101
 STRESS PERIOD=  1 TIMESTEP=167 LAYER=  1 ZONE=  2 ACTIVE CELLS= 3113 NUMBER OF EQUATIONS=    3113
 
 SOLVING FOR HEAD 

 NO OUTPUT CONTROL FOR STRESS PERIOD    1   TIME STEP  168
 SOLVING FOR ZETA FOR LAYER     1 ZONE     2

    1387 UPPER PART EQS.      1379 LOWER PART EQS.    BAND WIDTH + 1 =   90
 STRESS PERIOD=  1 TIMESTEP=168 LAYER=  1 ZONE=  2 ACTIVE CELLS= 2766 NUMBER OF EQUATIONS=    2766
 
 SOLVING FOR HEAD 

 NO OUTPUT CONTROL FOR STRESS PERIOD    1   TIME STEP  169
 SOLVING FOR ZETA FOR LAYER     1 ZONE     2

    1503 UPPER PART EQS.      1508 LOWER PART EQS.    BAND WIDTH + 1 =   86
 STRESS PERIOD=  1 TIMESTEP=169 LAYER=  1 ZONE=  2 ACTIVE CELLS= 3011 NUMBER OF EQUATIONS=    3011
 
 SOLVING FOR HEAD 

 NO OUTPUT CONTROL FOR STRESS PERIOD    1   TIME STEP  170
 SOLVING FOR ZETA FOR LAYER     1 ZONE     2

    1525 UPPER PART EQS.      1552 LOWER PART EQS.    BAND WIDTH + 1 =   92
 STRESS PERIOD=  1 TIMESTEP=170 LAYER=  1 ZONE=  2 ACTIVE CELLS= 3077 NUMBER OF EQUATIONS=    3077
 
 SOLVING FOR HEAD 

 NO OUTPUT CONTROL FOR STRESS PERIOD    1   TIME STEP  171
 SOLVING FOR ZETA FOR LAYER     1 ZONE     2

    1498 UPPER PART EQS.      1484 LOWER PART EQS.    BAND WIDTH + 1 =   98
 STRESS PERIOD=  1 TIMESTEP=171 LAYER=  1 ZONE=  2 ACTIVE CELLS= 2982 NUMBER OF EQUATIONS=    2982
 
 SOLVING FOR HEAD 

 NO OUTPUT CONTROL FOR STRESS PERIOD    1   TIME STEP  172
 SOLVING FOR ZETA FOR LAYER     1 ZONE     2

    1532 UPPER PART EQS.      1528 LOWER PART EQS.    BAND WIDTH + 1 =  111
 INSUFFICIENT MEMORY FOR DE4 SOLVER:
 MXBW MUST BE AT LEAST  111
 
 SOLVING FOR HEAD 

 NO OUTPUT CONTROL FOR STRESS PERIOD    1   TIME STEP  173
 SOLVING FOR ZETA FOR LAYER     1 ZONE     2

    1811 UPPER PART EQS.      1789 LOWER PART EQS.    BAND WIDTH + 1 =   77
 STRESS PERIOD=  1 TIMESTEP=173 LAYER=  1 ZONE=  2 ACTIVE CELLS= 3600 NUMBER OF EQUATIONS=    3600
 
 SOLVING FOR HEAD 

 NO OUTPUT CONTROL FOR STRESS PERIOD    1   TIME STEP  174
 SOLVING FOR ZETA FOR LAYER     1 ZONE     2

    1476 UPPER PART EQS.      1462 LOWER PART EQS.    BAND WIDTH + 1 =   65
 STRESS PERIOD=  1 TIMESTEP=174 LAYER=  1 ZONE=  2 ACTIVE CELLS= 2938 NUMBER OF EQUATIONS=    2938
 
 SOLVING FOR HEAD 

 NO OUTPUT CONTROL FOR STRESS PERIOD    1   TIME STEP  175
 SOLVING FOR ZETA FOR LAYER     1 ZONE     2

    1437 UPPER PART EQS.      1504 LOWER PART EQS.    BAND WIDTH + 1 =   84
 STRESS PERIOD=  1 TIMESTEP=175 LAYER=  1 ZONE=  2 ACTIVE CELLS= 2941 NUMBER OF EQUATIONS=    2941
 
 SOLVING FOR HEAD 

 NO OUTPUT CONTROL FOR STRESS PERIOD    1   TIME STEP  176
 SOLVING FOR ZETA FOR LAYER     1 ZONE     2

    1600 UPPER PART EQS.      1545 LOWER PART EQS.    BAND WIDTH + 1 =   83
 STRESS PERIOD=  1 TIMESTEP=176 LAYER=  1 ZONE=  2 ACTIVE CELLS= 3145 NUMBER OF EQUATIONS=    3145
 
 SOLVING FOR HEAD 

 NO OUTPUT CONTROL FOR STRESS PERIOD    1   TIME STEP  177
 SOLVING FOR ZETA FOR LAYER     1 ZONE     2

    1578 UPPER PART EQS.      1663 LOWER PART EQS.    BAND WIDTH + 1 =  112
 INSUFFICIENT MEMORY FOR DE4 SOLVER:
 MXBW MUST BE AT LEAST  112
 
 SOLVING FOR HEAD 

 NO OUTPUT CONTROL FOR STRESS PERIOD    1   TIME STEP  178
 SOLVING FOR ZETA FOR LAYER     1 ZONE     2

    1810 UPPER PART EQS.      1826 LOWER PART EQS.    BAND WIDTH + 1 =   92
 STRESS PERIOD=  1 TIMESTEP=178 LAYER=  1 ZONE=  2 ACTIVE CELLS= 3636 NUMBER OF EQUATIONS=    3636
 
 SOLVING FOR HEAD 

 NO OUTPUT CONTROL FOR STRESS PERIOD    1   TIME STEP  179
 SOLVING FOR ZETA FOR LAYER     1 ZONE     2

    1467 UPPER PART EQS.      1430 LOWER PART EQS.    BAND WIDTH + 1 =   81
 STRESS PERIOD=  1 TIMESTEP=179 LAYER=  1 ZONE=  2 ACTIVE CELLS= 2897 NUMBER OF EQUATIONS=    2897
 
 SOLVING FOR HEAD 

 OUTPUT CONTROL FOR STRESS PERIOD    1   TIME STEP  180
    SAVE HEAD FOR ALL LAYERS
    PRINT BUDGET
 SOLVING FOR ZETA FOR LAYER     1 ZONE     2

    1478 UPPER PART EQS.      1516 LOWER PART EQS.    BAND WIDTH + 1 =   83
 STRESS PERIOD=  1 TIMESTEP=180 LAYER=  1 ZONE=  2 ACTIVE CELLS= 2994 NUMBER OF EQUATIONS=    2994
 UBUDSV SAVING "      ZETASRF  1" ON UNIT 55 AT TIME STEP180, STRESS PERIOD    1


                      VOLUMETRIC SWI ZONE BUDGET FOR ENTIRE MODEL
                     AT END OF TIME STEP  180 IN STRESS PERIOD   1
                                      ZONE     1
  -----------------------------------------------------------------------------------

        CUMULATIVE VOLUMES      L**3       RATES FOR THIS TIME STEP      L**3/T
        ------------------                 ------------------------

              IN:                                      IN:
              ---                                      ---
             BOUNDARIES = 40031625216.0000            BOUNDARIES =      553036.5625
          CONSTANT HEAD = 28678791168.0000         CONSTANT HEAD =      127556.0625
            ZONE CHANGE =286309253120.0000           ZONE CHANGE =     1816803.1250
       ZONE CHG TIP/TOE =       4.1639E+12      ZONE CHG TIP/TOE =    77096272.0000
            ZONE MIXING =           0.0000           ZONE MIXING =           0.0000

               TOTAL IN =       4.5190E+12              TOTAL IN =    79593664.0000

             OUT:                                     OUT:
             ----                                     ----
             BOUNDARIES =           0.0000            BOUNDARIES =           0.0000
          CONSTANT HEAD =       1.8351E+12         CONSTANT HEAD =     2553405.0000
            ZONE CHANGE =       4.4549E+12           ZONE CHANGE =    80821856.0000
       ZONE CHG TIP/TOE =   530145824.0000      ZONE CHG TIP/TOE =        4343.0728
            ZONE MIXING =           0.0000           ZONE MIXING =           0.0000

              TOTAL OUT =       6.2905E+12             TOTAL OUT =    83379608.0000

               IN - OUT =      -1.7715E+12              IN - OUT =    -3785944.0000

    PERCENT DISCREPANCY =         -32.78     PERCENT DISCREPANCY =          -4.65



                      VOLUMETRIC SWI ZONE BUDGET FOR ENTIRE MODEL
                     AT END OF TIME STEP  180 IN STRESS PERIOD   1
                                      ZONE     2
  -----------------------------------------------------------------------------------

        CUMULATIVE VOLUMES      L**3       RATES FOR THIS TIME STEP      L**3/T
        ------------------                 ------------------------

              IN:                                      IN:
              ---                                      ---
             BOUNDARIES = 14056489984.0000            BOUNDARIES =      269658.8438
          CONSTANT HEAD =       1.9709E+12         CONSTANT HEAD =     5032479.5000
            ZONE CHANGE =290935308288.0000           ZONE CHANGE =     3725909.0000
       ZONE CHG TIP/TOE =       3.4718E+14      ZONE CHG TIP/TOE =  2999517184.0000
            ZONE MIXING =           0.0000           ZONE MIXING =           0.0000

               TOTAL IN =       3.4946E+14              TOTAL IN =  3008545280.0000

             OUT:                                     OUT:
             ----                                     ----
             BOUNDARIES =           0.0000            BOUNDARIES =           0.0000
          CONSTANT HEAD =218568671232.0000         CONSTANT HEAD =     3429323.7500
            ZONE CHANGE =       3.4747E+14           ZONE CHANGE =  3001329664.0000
       ZONE CHG TIP/TOE =    23507610.0000      ZONE CHG TIP/TOE =         330.7039
            ZONE MIXING =           0.0000           ZONE MIXING =           0.0000

              TOTAL OUT =       3.4769E+14             TOTAL OUT =  3004759296.0000

               IN - OUT =       1.7715E+12              IN - OUT =     3785984.0000

    PERCENT DISCREPANCY =           0.51     PERCENT DISCREPANCY =           0.13


 HEAD WILL BE SAVED ON UNIT   51 AT END OF TIME STEP  180, STRESS PERIOD    1
1
  VOLUMETRIC BUDGET FOR ENTIRE MODEL AT END OF TIME STEP  180, STRESS PERIOD   1
  ------------------------------------------------------------------------------

     CUMULATIVE VOLUMES      L**3       RATES FOR THIS TIME STEP      L**3/T
     ------------------                 ------------------------

           IN:                                      IN:
           ---                                      ---
             STORAGE =           0.0000               STORAGE =           0.0000
       CONSTANT HEAD =       3.4396E+12         CONSTANT HEAD =    32344128.0000
          SWIADDTOCH =       2.3786E+12            SWIADDTOCH =     2112609.2500
            RECHARGE = 54088155136.0000              RECHARGE =      822695.3750

            TOTAL IN =       5.8723E+12              TOTAL IN =    35279432.0000

          OUT:                                     OUT:
          ----                                     ----
             STORAGE =           0.0000               STORAGE =           0.0000
       CONSTANT HEAD =       2.5138E+12         CONSTANT HEAD =     3101771.7500
          SWIADDTOCH =       3.3584E+12            SWIADDTOCH =    32177658.0000
            RECHARGE =           0.0000              RECHARGE =           0.0000

           TOTAL OUT =       5.8723E+12             TOTAL OUT =    35279428.0000

            IN - OUT =     1572864.0000              IN - OUT =           4.0000

 PERCENT DISCREPANCY =           0.00     PERCENT DISCREPANCY =           0.00






         TIME SUMMARY AT END OF TIME STEP  180 IN STRESS PERIOD    1
                    SECONDS     MINUTES      HOURS       DAYS        YEARS
                    -----------------------------------------------------------
   TIME STEP LENGTH 3.15576E+07 5.25960E+05  8766.0      365.25      1.0000    
 STRESS PERIOD TIME 5.68037E+09 9.46728E+07 1.57788E+06  65745.      180.00    
         TOTAL TIME 5.68037E+09 9.46728E+07 1.57788E+06  65745.      180.00    
1
 
 SOLVING FOR HEAD 

 NO OUTPUT CONTROL FOR STRESS PERIOD    1   TIME STEP  181
 SOLVING FOR ZETA FOR LAYER     1 ZONE     2

    1615 UPPER PART EQS.      1604 LOWER PART EQS.    BAND WIDTH + 1 =   86
 STRESS PERIOD=  1 TIMESTEP=181 LAYER=  1 ZONE=  2 ACTIVE CELLS= 3219 NUMBER OF EQUATIONS=    3219
 
 SOLVING FOR HEAD 

 NO OUTPUT CONTROL FOR STRESS PERIOD    1   TIME STEP  182
 SOLVING FOR ZETA FOR LAYER     1 ZONE     2

    1627 UPPER PART EQS.      1642 LOWER PART EQS.    BAND WIDTH + 1 =   85
 STRESS PERIOD=  1 TIMESTEP=182 LAYER=  1 ZONE=  2 ACTIVE CELLS= 3269 NUMBER OF EQUATIONS=    3269
 
 SOLVING FOR HEAD 

 NO OUTPUT CONTROL FOR STRESS PERIOD    1   TIME STEP  183
 SOLVING FOR ZETA FOR LAYER     1 ZONE     2

    1719 UPPER PART EQS.      1711 LOWER PART EQS.    BAND WIDTH + 1 =   82
 STRESS PERIOD=  1 TIMESTEP=183 LAYER=  1 ZONE=  2 ACTIVE CELLS= 3430 NUMBER OF EQUATIONS=    3430
 
 SOLVING FOR HEAD 

 NO OUTPUT CONTROL FOR STRESS PERIOD    1   TIME STEP  184
 SOLVING FOR ZETA FOR LAYER     1 ZONE     2

    1721 UPPER PART EQS.      1726 LOWER PART EQS.    BAND WIDTH + 1 =   89
 STRESS PERIOD=  1 TIMESTEP=184 LAYER=  1 ZONE=  2 ACTIVE CELLS= 3447 NUMBER OF EQUATIONS=    3447
 
 SOLVING FOR HEAD 

 NO OUTPUT CONTROL FOR STRESS PERIOD    1   TIME STEP  185
 SOLVING FOR ZETA FOR LAYER     1 ZONE     2

    1654 UPPER PART EQS.      1661 LOWER PART EQS.    BAND WIDTH + 1 =   88
 STRESS PERIOD=  1 TIMESTEP=185 LAYER=  1 ZONE=  2 ACTIVE CELLS= 3315 NUMBER OF EQUATIONS=    3315
 
 SOLVING FOR HEAD 

 NO OUTPUT CONTROL FOR STRESS PERIOD    1   TIME STEP  186
 SOLVING FOR ZETA FOR LAYER     1 ZONE     2

    1773 UPPER PART EQS.      1755 LOWER PART EQS.    BAND WIDTH + 1 =  105
 STRESS PERIOD=  1 TIMESTEP=186 LAYER=  1 ZONE=  2 ACTIVE CELLS= 3528 NUMBER OF EQUATIONS=    3528
 
 SOLVING FOR HEAD 

 NO OUTPUT CONTROL FOR STRESS PERIOD    1   TIME STEP  187
 SOLVING FOR ZETA FOR LAYER     1 ZONE     2

    1799 UPPER PART EQS.      1822 LOWER PART EQS.    BAND WIDTH + 1 =  121
 INSUFFICIENT MEMORY FOR DE4 SOLVER:
 MXBW MUST BE AT LEAST  121
 
 SOLVING FOR HEAD 

 NO OUTPUT CONTROL FOR STRESS PERIOD    1   TIME STEP  188
 SOLVING FOR ZETA FOR LAYER     1 ZONE     2

    2100 UPPER PART EQS.      2104 LOWER PART EQS.    BAND WIDTH + 1 =   71
 STRESS PERIOD=  1 TIMESTEP=188 LAYER=  1 ZONE=  2 ACTIVE CELLS= 4204 NUMBER OF EQUATIONS=    4204
 
 SOLVING FOR HEAD 

 NO OUTPUT CONTROL FOR STRESS PERIOD    1   TIME STEP  189
 SOLVING FOR ZETA FOR LAYER     1 ZONE     2

    1608 UPPER PART EQS.      1611 LOWER PART EQS.    BAND WIDTH + 1 =   59
 STRESS PERIOD=  1 TIMESTEP=189 LAYER=  1 ZONE=  2 ACTIVE CELLS= 3219 NUMBER OF EQUATIONS=    3219
 
 SOLVING FOR HEAD 

 NO OUTPUT CONTROL FOR STRESS PERIOD    1   TIME STEP  190
 SOLVING FOR ZETA FOR LAYER     1 ZONE     2

    1610 UPPER PART EQS.      1601 LOWER PART EQS.    BAND WIDTH + 1 =   62
 STRESS PERIOD=  1 TIMESTEP=190 LAYER=  1 ZONE=  2 ACTIVE CELLS= 3211 NUMBER OF EQUATIONS=    3211
 
 SOLVING FOR HEAD 

 NO OUTPUT CONTROL FOR STRESS PERIOD    1   TIME STEP  191
 SOLVING FOR ZETA FOR LAYER     1 ZONE     2

    1679 UPPER PART EQS.      1689 LOWER PART EQS.    BAND WIDTH + 1 =   64
 STRESS PERIOD=  1 TIMESTEP=191 LAYER=  1 ZONE=  2 ACTIVE CELLS= 3368 NUMBER OF EQUATIONS=    3368
 
 SOLVING FOR HEAD 

 NO OUTPUT CONTROL FOR STRESS PERIOD    1   TIME STEP  192
 SOLVING FOR ZETA FOR LAYER     1 ZONE     2

    1631 UPPER PART EQS.      1606 LOWER PART EQS.    BAND WIDTH + 1 =   69
 STRESS PERIOD=  1 TIMESTEP=192 LAYER=  1 ZONE=  2 ACTIVE CELLS= 3237 NUMBER OF EQUATIONS=    3237
 
 SOLVING FOR HEAD 

 NO OUTPUT CONTROL FOR STRESS PERIOD    1   TIME STEP  193
 SOLVING FOR ZETA FOR LAYER     1 ZONE     2

    1542 UPPER PART EQS.      1592 LOWER PART EQS.    BAND WIDTH + 1 =   88
 STRESS PERIOD=  1 TIMESTEP=193 LAYER=  1 ZONE=  2 ACTIVE CELLS= 3134 NUMBER OF EQUATIONS=    3134
 
 SOLVING FOR HEAD 

 NO OUTPUT CONTROL FOR STRESS PERIOD    1   TIME STEP  194
 SOLVING FOR ZETA FOR LAYER     1 ZONE     2

    1547 UPPER PART EQS.      1494 LOWER PART EQS.    BAND WIDTH + 1 =   83
 STRESS PERIOD=  1 TIMESTEP=194 LAYER=  1 ZONE=  2 ACTIVE CELLS= 3041 NUMBER OF EQUATIONS=    3041
 
 SOLVING FOR HEAD 

 NO OUTPUT CONTROL FOR STRESS PERIOD    1   TIME STEP  195
 SOLVING FOR ZETA FOR LAYER     1 ZONE     2

    1534 UPPER PART EQS.      1610 LOWER PART EQS.    BAND WIDTH + 1 =  103
 STRESS PERIOD=  1 TIMESTEP=195 LAYER=  1 ZONE=  2 ACTIVE CELLS= 3144 NUMBER OF EQUATIONS=    3144
 
 SOLVING FOR HEAD 

 NO OUTPUT CONTROL FOR STRESS PERIOD    1   TIME STEP  196
 SOLVING FOR ZETA FOR LAYER     1 ZONE     2

    1639 UPPER PART EQS.      1563 LOWER PART EQS.    BAND WIDTH + 1 =  106
 INSUFFICIENT MEMORY FOR DE4 SOLVER:
 MXBW MUST BE AT LEAST  106
 
 SOLVING FOR HEAD 

 NO OUTPUT CONTROL FOR STRESS PERIOD    1   TIME STEP  197
 SOLVING FOR ZETA FOR LAYER     1 ZONE     2

    1826 UPPER PART EQS.      1873 LOWER PART EQS.    BAND WIDTH + 1 =   67
 STRESS PERIOD=  1 TIMESTEP=197 LAYER=  1 ZONE=  2 ACTIVE CELLS= 3699 NUMBER OF EQUATIONS=    3699
 
 SOLVING FOR HEAD 

 NO OUTPUT CONTROL FOR STRESS PERIOD    1   TIME STEP  198
 SOLVING FOR ZETA FOR LAYER     1 ZONE     2

    1592 UPPER PART EQS.      1569 LOWER PART EQS.    BAND WIDTH + 1 =   67
 STRESS PERIOD=  1 TIMESTEP=198 LAYER=  1 ZONE=  2 ACTIVE CELLS= 3161 NUMBER OF EQUATIONS=    3161
 
 SOLVING FOR HEAD 

 NO OUTPUT CONTROL FOR STRESS PERIOD    1   TIME STEP  199
 SOLVING FOR ZETA FOR LAYER     1 ZONE     2

    1454 UPPER PART EQS.      1494 LOWER PART EQS.    BAND WIDTH + 1 =   69
 STRESS PERIOD=  1 TIMESTEP=199 LAYER=  1 ZONE=  2 ACTIVE CELLS= 2948 NUMBER OF EQUATIONS=    2948
 
 SOLVING FOR HEAD 

 OUTPUT CONTROL FOR STRESS PERIOD    1   TIME STEP  200
    SAVE HEAD FOR ALL LAYERS
    PRINT BUDGET
 SOLVING FOR ZETA FOR LAYER     1 ZONE     2

    1544 UPPER PART EQS.      1502 LOWER PART EQS.    BAND WIDTH + 1 =   69
 STRESS PERIOD=  1 TIMESTEP=200 LAYER=  1 ZONE=  2 ACTIVE CELLS= 3046 NUMBER OF EQUATIONS=    3046
 UBUDSV SAVING "      ZETASRF  1" ON UNIT 55 AT TIME STEP200, STRESS PERIOD    1


                      VOLUMETRIC SWI ZONE BUDGET FOR ENTIRE MODEL
                     AT END OF TIME STEP  200 IN STRESS PERIOD   1
                                      ZONE     1
  -----------------------------------------------------------------------------------

        CUMULATIVE VOLUMES      L**3       RATES FOR THIS TIME STEP      L**3/T
        ------------------                 ------------------------

              IN:                                      IN:
              ---                                      ---
             BOUNDARIES = 44363300864.0000            BOUNDARIES =      565044.3750
          CONSTANT HEAD = 29927424000.0000         CONSTANT HEAD =      179007.2344
            ZONE CHANGE =313358712832.0000           ZONE CHANGE =     4560413.5000
       ZONE CHG TIP/TOE =       4.6368E+12      ZONE CHG TIP/TOE =    33980476.0000
            ZONE MIXING =           0.0000           ZONE MIXING =           0.0000

               TOTAL IN =       5.0245E+12              TOTAL IN =    39284940.0000

             OUT:                                     OUT:
             ----                                     ----
             BOUNDARIES =           0.0000            BOUNDARIES =           0.0000
          CONSTANT HEAD =       1.9930E+12         CONSTANT HEAD =    29734844.0000
            ZONE CHANGE =       4.9542E+12           ZONE CHANGE =    36477780.0000
       ZONE CHG TIP/TOE =   597229440.0000      ZONE CHG TIP/TOE =         232.4250
            ZONE MIXING =           0.0000           ZONE MIXING =           0.0000

              TOTAL OUT =       6.9478E+12             TOTAL OUT =    66212856.0000

               IN - OUT =      -1.9233E+12              IN - OUT =   -26927916.0000

    PERCENT DISCREPANCY =         -32.13     PERCENT DISCREPANCY =         -51.05



                      VOLUMETRIC SWI ZONE BUDGET FOR ENTIRE MODEL
                     AT END OF TIME STEP  200 IN STRESS PERIOD   1
                                      ZONE     2
  -----------------------------------------------------------------------------------

        CUMULATIVE VOLUMES      L**3       RATES FOR THIS TIME STEP      L**3/T
        ------------------                 ------------------------

              IN:                                      IN:
              ---                                      ---
             BOUNDARIES = 15734600704.0000            BOUNDARIES =      257651.0000
          CONSTANT HEAD =       2.1446E+12         CONSTANT HEAD =    32103388.0000
            ZONE CHANGE =317408280576.0000           ZONE CHANGE =     2497535.0000
       ZONE CHG TIP/TOE =       3.7961E+14      ZONE CHG TIP/TOE =  4145058048.0000
            ZONE MIXING =           0.0000           ZONE MIXING =           0.0000

               TOTAL IN =       3.8209E+14              TOTAL IN =  4179916544.0000

             OUT:                                     OUT:
             ----                                     ----
             BOUNDARIES =           0.0000            BOUNDARIES =           0.0000
          CONSTANT HEAD =241643749376.0000         CONSTANT HEAD =     3370247.7500
            ZONE CHANGE =       3.7992E+14           ZONE CHANGE =  4149618176.0000
       ZONE CHG TIP/TOE =    25774324.0000      ZONE CHG TIP/TOE =         232.2558
            ZONE MIXING =           0.0000           ZONE MIXING =           0.0000

              TOTAL OUT =       3.8016E+14             TOTAL OUT =  4152988672.0000

               IN - OUT =       1.9232E+12              IN - OUT =    26927872.0000

    PERCENT DISCREPANCY =           0.50     PERCENT DISCREPANCY =           0.65


 HEAD WILL BE SAVED ON UNIT   51 AT END OF TIME STEP  200, STRESS PERIOD    1
1
  VOLUMETRIC BUDGET FOR ENTIRE MODEL AT END OF TIME STEP  200, STRESS PERIOD   1
  ------------------------------------------------------------------------------

     CUMULATIVE VOLUMES      L**3       RATES FOR THIS TIME STEP      L**3/T
     ------------------                 ------------------------

           IN:                                      IN:
           ---                                      ---
             STORAGE =           0.0000               STORAGE =           0.0000
       CONSTANT HEAD =       3.6674E+12         CONSTANT HEAD =    16249756.0000
          SWIADDTOCH =       2.6755E+12            SWIADDTOCH =    43036448.0000
            RECHARGE = 60097970176.0000              RECHARGE =      822695.3750

            TOTAL IN =       6.4030E+12              TOTAL IN =    60108900.0000

          OUT:                                     OUT:
          ----                                     ----
             STORAGE =           0.0000               STORAGE =           0.0000
       CONSTANT HEAD =       2.8157E+12         CONSTANT HEAD =    44228184.0000
          SWIADDTOCH =       3.5873E+12            SWIADDTOCH =    15880716.0000
            RECHARGE =           0.0000              RECHARGE =           0.0000

           TOTAL OUT =       6.4030E+12             TOTAL OUT =    60108900.0000

            IN - OUT =     1048576.0000              IN - OUT =           0.0000

 PERCENT DISCREPANCY =           0.00     PERCENT DISCREPANCY =           0.00






         TIME SUMMARY AT END OF TIME STEP  200 IN STRESS PERIOD    1
                    SECONDS     MINUTES      HOURS       DAYS        YEARS
                    -----------------------------------------------------------
   TIME STEP LENGTH 3.15576E+07 5.25960E+05  8766.0      365.25      1.0000    
 STRESS PERIOD TIME 6.31152E+09 1.05192E+08 1.75320E+06  73050.      200.00    
         TOTAL TIME 6.31152E+09 1.05192E+08 1.75320E+06  73050.      200.00    
1
 
 SOLVING FOR HEAD 

 NO OUTPUT CONTROL FOR STRESS PERIOD    1   TIME STEP  201
 SOLVING FOR ZETA FOR LAYER     1 ZONE     2

    1411 UPPER PART EQS.      1454 LOWER PART EQS.    BAND WIDTH + 1 =   73
 STRESS PERIOD=  1 TIMESTEP=201 LAYER=  1 ZONE=  2 ACTIVE CELLS= 2865 NUMBER OF EQUATIONS=    2865
 
 SOLVING FOR HEAD 

 NO OUTPUT CONTROL FOR STRESS PERIOD    1   TIME STEP  202
 SOLVING FOR ZETA FOR LAYER     1 ZONE     2

    1467 UPPER PART EQS.      1415 LOWER PART EQS.    BAND WIDTH + 1 =   82
 STRESS PERIOD=  1 TIMESTEP=202 LAYER=  1 ZONE=  2 ACTIVE CELLS= 2882 NUMBER OF EQUATIONS=    2882
 
 SOLVING FOR HEAD 

 NO OUTPUT CONTROL FOR STRESS PERIOD    1   TIME STEP  203
 SOLVING FOR ZETA FOR LAYER     1 ZONE     2

    1421 UPPER PART EQS.      1496 LOWER PART EQS.    BAND WIDTH + 1 =  108
 INSUFFICIENT MEMORY FOR DE4 SOLVER:
 MXBW MUST BE AT LEAST  108
 
 SOLVING FOR HEAD 

 NO OUTPUT CONTROL FOR STRESS PERIOD    1   TIME STEP  204
 SOLVING FOR ZETA FOR LAYER     1 ZONE     2

    1674 UPPER PART EQS.      1645 LOWER PART EQS.    BAND WIDTH + 1 =   66
 STRESS PERIOD=  1 TIMESTEP=204 LAYER=  1 ZONE=  2 ACTIVE CELLS= 3319 NUMBER OF EQUATIONS=    3319
 
 SOLVING FOR HEAD 

 NO OUTPUT CONTROL FOR STRESS PERIOD    1   TIME STEP  205
 SOLVING FOR ZETA FOR LAYER     1 ZONE     2

    1458 UPPER PART EQS.      1475 LOWER PART EQS.    BAND WIDTH + 1 =   60
 STRESS PERIOD=  1 TIMESTEP=205 LAYER=  1 ZONE=  2 ACTIVE CELLS= 2933 NUMBER OF EQUATIONS=    2933
 
 SOLVING FOR HEAD 

 NO OUTPUT CONTROL FOR STRESS PERIOD    1   TIME STEP  206
 SOLVING FOR ZETA FOR LAYER     1 ZONE     2

    1595 UPPER PART EQS.      1547 LOWER PART EQS.    BAND WIDTH + 1 =   61
 STRESS PERIOD=  1 TIMESTEP=206 LAYER=  1 ZONE=  2 ACTIVE CELLS= 3142 NUMBER OF EQUATIONS=    3142
 
 SOLVING FOR HEAD 

 NO OUTPUT CONTROL FOR STRESS PERIOD    1   TIME STEP  207
 SOLVING FOR ZETA FOR LAYER     1 ZONE     2

    1621 UPPER PART EQS.      1653 LOWER PART EQS.    BAND WIDTH + 1 =   60
 STRESS PERIOD=  1 TIMESTEP=207 LAYER=  1 ZONE=  2 ACTIVE CELLS= 3274 NUMBER OF EQUATIONS=    3274
 
 SOLVING FOR HEAD 

 NO OUTPUT CONTROL FOR STRESS PERIOD    1   TIME STEP  208
 SOLVING FOR ZETA FOR LAYER     1 ZONE     2

    1696 UPPER PART EQS.      1646 LOWER PART EQS.    BAND WIDTH + 1 =   76
 STRESS PERIOD=  1 TIMESTEP=208 LAYER=  1 ZONE=  2 ACTIVE CELLS= 3342 NUMBER OF EQUATIONS=    3342
 
 SOLVING FOR HEAD 

 NO OUTPUT CONTROL FOR STRESS PERIOD    1   TIME STEP  209
 SOLVING FOR ZETA FOR LAYER     1 ZONE     2

    1642 UPPER PART EQS.      1690 LOWER PART EQS.    BAND WIDTH + 1 =   72
 STRESS PERIOD=  1 TIMESTEP=209 LAYER=  1 ZONE=  2 ACTIVE CELLS= 3332 NUMBER OF EQUATIONS=    3332
 
 SOLVING FOR HEAD 

 NO OUTPUT CONTROL FOR STRESS PERIOD    1   TIME STEP  210
 SOLVING FOR ZETA FOR LAYER     1 ZONE     2

    1647 UPPER PART EQS.      1624 LOWER PART EQS.    BAND WIDTH + 1 =   62
 STRESS PERIOD=  1 TIMESTEP=210 LAYER=  1 ZONE=  2 ACTIVE CELLS= 3271 NUMBER OF EQUATIONS=    3271
 
 SOLVING FOR HEAD 

 NO OUTPUT CONTROL FOR STRESS PERIOD    1   TIME STEP  211
 SOLVING FOR ZETA FOR LAYER     1 ZONE     2

    1726 UPPER PART EQS.      1766 LOWER PART EQS.    BAND WIDTH + 1 =   66
 STRESS PERIOD=  1 TIMESTEP=211 LAYER=  1 ZONE=  2 ACTIVE CELLS= 3492 NUMBER OF EQUATIONS=    3492
 
 SOLVING FOR HEAD 

 NO OUTPUT CONTROL FOR STRESS PERIOD    1   TIME STEP  212
 SOLVING FOR ZETA FOR LAYER     1 ZONE     2

    1795 UPPER PART EQS.      1741 LOWER PART EQS.    BAND WIDTH + 1 =   74
 STRESS PERIOD=  1 TIMESTEP=212 LAYER=  1 ZONE=  2 ACTIVE CELLS= 3536 NUMBER OF EQUATIONS=    3536
 
 SOLVING FOR HEAD 

 NO OUTPUT CONTROL FOR STRESS PERIOD    1   TIME STEP  213
 SOLVING FOR ZETA FOR LAYER     1 ZONE     2

    1717 UPPER PART EQS.      1774 LOWER PART EQS.    BAND WIDTH + 1 =   70
 STRESS PERIOD=  1 TIMESTEP=213 LAYER=  1 ZONE=  2 ACTIVE CELLS= 3491 NUMBER OF EQUATIONS=    3491
 
 SOLVING FOR HEAD 

 NO OUTPUT CONTROL FOR STRESS PERIOD    1   TIME STEP  214
 SOLVING FOR ZETA FOR LAYER     1 ZONE     2

    1859 UPPER PART EQS.      1809 LOWER PART EQS.    BAND WIDTH + 1 =   76
 STRESS PERIOD=  1 TIMESTEP=214 LAYER=  1 ZONE=  2 ACTIVE CELLS= 3668 NUMBER OF EQUATIONS=    3668
 
 SOLVING FOR HEAD 

 NO OUTPUT CONTROL FOR STRESS PERIOD    1   TIME STEP  215
 SOLVING FOR ZETA FOR LAYER     1 ZONE     2

    1646 UPPER PART EQS.      1683 LOWER PART EQS.    BAND WIDTH + 1 =   72
 STRESS PERIOD=  1 TIMESTEP=215 LAYER=  1 ZONE=  2 ACTIVE CELLS= 3329 NUMBER OF EQUATIONS=    3329
 
 SOLVING FOR HEAD 

 NO OUTPUT CONTROL FOR STRESS PERIOD    1   TIME STEP  216
 SOLVING FOR ZETA FOR LAYER     1 ZONE     2

    1698 UPPER PART EQS.      1718 LOWER PART EQS.    BAND WIDTH + 1 =  107
 INSUFFICIENT MEMORY FOR DE4 SOLVER:
 MXBW MUST BE AT LEAST  107
 
 SOLVING FOR HEAD 

 NO OUTPUT CONTROL FOR STRESS PERIOD    1   TIME STEP  217
 SOLVING FOR ZETA FOR LAYER     1 ZONE     2

    1950 UPPER PART EQS.      2008 LOWER PART EQS.    BAND WIDTH + 1 =   75
 STRESS PERIOD=  1 TIMESTEP=217 LAYER=  1 ZONE=  2 ACTIVE CELLS= 3958 NUMBER OF EQUATIONS=    3958
 
 SOLVING FOR HEAD 

 NO OUTPUT CONTROL FOR STRESS PERIOD    1   TIME STEP  218
 SOLVING FOR ZETA FOR LAYER     1 ZONE     2

    1727 UPPER PART EQS.      1765 LOWER PART EQS.    BAND WIDTH + 1 =   90
 STRESS PERIOD=  1 TIMESTEP=218 LAYER=  1 ZONE=  2 ACTIVE CELLS= 3492 NUMBER OF EQUATIONS=    3492
 
 SOLVING FOR HEAD 

 NO OUTPUT CONTROL FOR STRESS PERIOD    1   TIME STEP  219
 SOLVING FOR ZETA FOR LAYER     1 ZONE     2

    1901 UPPER PART EQS.      1846 LOWER PART EQS.    BAND WIDTH + 1 =  109
 INSUFFICIENT MEMORY FOR DE4 SOLVER:
 MXBW MUST BE AT LEAST  109
 
 SOLVING FOR HEAD 

 OUTPUT CONTROL FOR STRESS PERIOD    1   TIME STEP  220
    SAVE HEAD FOR ALL LAYERS
    PRINT BUDGET
 SOLVING FOR ZETA FOR LAYER     1 ZONE     2

    2013 UPPER PART EQS.      2011 LOWER PART EQS.    BAND WIDTH + 1 =   74
 STRESS PERIOD=  1 TIMESTEP=220 LAYER=  1 ZONE=  2 ACTIVE CELLS= 4024 NUMBER OF EQUATIONS=    4024
 UBUDSV SAVING "      ZETASRF  1" ON UNIT 55 AT TIME STEP220, STRESS PERIOD    1


                      VOLUMETRIC SWI ZONE BUDGET FOR ENTIRE MODEL
                     AT END OF TIME STEP  220 IN STRESS PERIOD   1
                                      ZONE     1
  -----------------------------------------------------------------------------------

        CUMULATIVE VOLUMES      L**3       RATES FOR THIS TIME STEP      L**3/T
        ------------------                 ------------------------

              IN:                                      IN:
              ---                                      ---
             BOUNDARIES = 48748441600.0000            BOUNDARIES =      673657.7500
          CONSTANT HEAD = 30949042176.0000         CONSTANT HEAD =       13995.9844
            ZONE CHANGE =335047884800.0000           ZONE CHANGE =     4618731.0000
       ZONE CHG TIP/TOE =       4.9911E+12      ZONE CHG TIP/TOE =    20693692.0000
            ZONE MIXING =           0.0000           ZONE MIXING =           0.0000

               TOTAL IN =       5.4058E+12              TOTAL IN =    26000076.0000

             OUT:                                     OUT:
             ----                                     ----
             BOUNDARIES =           0.0000            BOUNDARIES =           0.0000
          CONSTANT HEAD =       2.2380E+12         CONSTANT HEAD =    21487022.0000
            ZONE CHANGE =       5.3336E+12           ZONE CHANGE =    24794928.0000
       ZONE CHG TIP/TOE =   667605952.0000      ZONE CHG TIP/TOE =        7427.3433
            ZONE MIXING =           0.0000           ZONE MIXING =           0.0000

              TOTAL OUT =       7.5722E+12             TOTAL OUT =    46289380.0000

               IN - OUT =      -2.1664E+12              IN - OUT =   -20289304.0000

    PERCENT DISCREPANCY =         -33.39     PERCENT DISCREPANCY =         -56.13



                      VOLUMETRIC SWI ZONE BUDGET FOR ENTIRE MODEL
                     AT END OF TIME STEP  220 IN STRESS PERIOD   1
                                      ZONE     2
  -----------------------------------------------------------------------------------

        CUMULATIVE VOLUMES      L**3       RATES FOR THIS TIME STEP      L**3/T
        ------------------                 ------------------------

              IN:                                      IN:
              ---                                      ---
             BOUNDARIES = 17359255552.0000            BOUNDARIES =      149037.6562
          CONSTANT HEAD =       2.4039E+12         CONSTANT HEAD =    23013276.0000
            ZONE CHANGE =342517579776.0000           ZONE CHANGE =     4101562.5000
       ZONE CHG TIP/TOE =       4.0411E+14      ZONE CHG TIP/TOE =   271541920.0000
            ZONE MIXING =           0.0000           ZONE MIXING =           0.0000

               TOTAL IN =       4.0687E+14              TOTAL IN =   298805792.0000

             OUT:                                     OUT:
             ----                                     ----
             BOUNDARIES =           0.0000            BOUNDARIES =           0.0000
          CONSTANT HEAD =262989692928.0000         CONSTANT HEAD =     2362943.7500
            ZONE CHANGE =       4.0444E+14           ZONE CHANGE =   276153216.0000
       ZONE CHG TIP/TOE =    28041808.0000      ZONE CHG TIP/TOE =         326.6002
            ZONE MIXING =           0.0000           ZONE MIXING =           0.0000

              TOTAL OUT =       4.0471E+14             TOTAL OUT =   278516480.0000

               IN - OUT =       2.1663E+12              IN - OUT =    20289312.0000

    PERCENT DISCREPANCY =           0.53     PERCENT DISCREPANCY =           7.03


 HEAD WILL BE SAVED ON UNIT   51 AT END OF TIME STEP  220, STRESS PERIOD    1
1
  VOLUMETRIC BUDGET FOR ENTIRE MODEL AT END OF TIME STEP  220, STRESS PERIOD   1
  ------------------------------------------------------------------------------

     CUMULATIVE VOLUMES      L**3       RATES FOR THIS TIME STEP      L**3/T
     ------------------                 ------------------------

           IN:                                      IN:
           ---                                      ---
             STORAGE =           0.0000               STORAGE =           0.0000
       CONSTANT HEAD =       4.0695E+12         CONSTANT HEAD =    45048972.0000
          SWIADDTOCH =       3.0981E+12            SWIADDTOCH =     6507517.5000
            RECHARGE = 66107785216.0000              RECHARGE =      822695.3750

            TOTAL IN =       7.2337E+12              TOTAL IN =    52379184.0000

          OUT:                                     OUT:
          ----                                     ----
             STORAGE =           0.0000               STORAGE =           0.0000
       CONSTANT HEAD =       3.2428E+12         CONSTANT HEAD =     5307873.0000
          SWIADDTOCH =       3.9909E+12            SWIADDTOCH =    47071312.0000
            RECHARGE =           0.0000              RECHARGE =           0.0000

           TOTAL OUT =       7.2337E+12             TOTAL OUT =    52379184.0000

            IN - OUT =      524288.0000              IN - OUT =           0.0000

 PERCENT DISCREPANCY =           0.00     PERCENT DISCREPANCY =           0.00






         TIME SUMMARY AT END OF TIME STEP  220 IN STRESS PERIOD    1
                    SECONDS     MINUTES      HOURS       DAYS        YEARS
                    -----------------------------------------------------------
   TIME STEP LENGTH 3.15576E+07 5.25960E+05  8766.0      365.25      1.0000    
 STRESS PERIOD TIME 6.94267E+09 1.15711E+08 1.92852E+06  80355.      220.00    
         TOTAL TIME 6.94267E+09 1.15711E+08 1.92852E+06  80355.      220.00    
1
 
 SOLVING FOR HEAD 

 NO OUTPUT CONTROL FOR STRESS PERIOD    1   TIME STEP  221
 SOLVING FOR ZETA FOR LAYER     1 ZONE     2

    1754 UPPER PART EQS.      1764 LOWER PART EQS.    BAND WIDTH + 1 =   69
 STRESS PERIOD=  1 TIMESTEP=221 LAYER=  1 ZONE=  2 ACTIVE CELLS= 3518 NUMBER OF EQUATIONS=    3518
 
 SOLVING FOR HEAD 

 NO OUTPUT CONTROL FOR STRESS PERIOD    1   TIME STEP  222
 SOLVING FOR ZETA FOR LAYER     1 ZONE     2

    1782 UPPER PART EQS.      1744 LOWER PART EQS.    BAND WIDTH + 1 =   76
 STRESS PERIOD=  1 TIMESTEP=222 LAYER=  1 ZONE=  2 ACTIVE CELLS= 3526 NUMBER OF EQUATIONS=    3526
 
 SOLVING FOR HEAD 

 NO OUTPUT CONTROL FOR STRESS PERIOD    1   TIME STEP  223
 SOLVING FOR ZETA FOR LAYER     1 ZONE     2

    1795 UPPER PART EQS.      1834 LOWER PART EQS.    BAND WIDTH + 1 =   77
 STRESS PERIOD=  1 TIMESTEP=223 LAYER=  1 ZONE=  2 ACTIVE CELLS= 3629 NUMBER OF EQUATIONS=    3629
 
 SOLVING FOR HEAD 

 NO OUTPUT CONTROL FOR STRESS PERIOD    1   TIME STEP  224
 SOLVING FOR ZETA FOR LAYER     1 ZONE     2

    1899 UPPER PART EQS.      1851 LOWER PART EQS.    BAND WIDTH + 1 =   93
 STRESS PERIOD=  1 TIMESTEP=224 LAYER=  1 ZONE=  2 ACTIVE CELLS= 3750 NUMBER OF EQUATIONS=    3750
 
 SOLVING FOR HEAD 

 NO OUTPUT CONTROL FOR STRESS PERIOD    1   TIME STEP  225
 SOLVING FOR ZETA FOR LAYER     1 ZONE     2

    1718 UPPER PART EQS.      1797 LOWER PART EQS.    BAND WIDTH + 1 =  117
 INSUFFICIENT MEMORY FOR DE4 SOLVER:
 MXBW MUST BE AT LEAST  117
 
 SOLVING FOR HEAD 

 NO OUTPUT CONTROL FOR STRESS PERIOD    1   TIME STEP  226
 SOLVING FOR ZETA FOR LAYER     1 ZONE     2

    2024 UPPER PART EQS.      2016 LOWER PART EQS.    BAND WIDTH + 1 =   81
 STRESS PERIOD=  1 TIMESTEP=226 LAYER=  1 ZONE=  2 ACTIVE CELLS= 4040 NUMBER OF EQUATIONS=    4040
 
 SOLVING FOR HEAD 

 NO OUTPUT CONTROL FOR STRESS PERIOD    1   TIME STEP  227
 SOLVING FOR ZETA FOR LAYER     1 ZONE     2

    1721 UPPER PART EQS.      1719 LOWER PART EQS.    BAND WIDTH + 1 =   70
 STRESS PERIOD=  1 TIMESTEP=227 LAYER=  1 ZONE=  2 ACTIVE CELLS= 3440 NUMBER OF EQUATIONS=    3440
 
 SOLVING FOR HEAD 

 NO OUTPUT CONTROL FOR STRESS PERIOD    1   TIME STEP  228
 SOLVING FOR ZETA FOR LAYER     1 ZONE     2

    1781 UPPER PART EQS.      1798 LOWER PART EQS.    BAND WIDTH + 1 =   77
 STRESS PERIOD=  1 TIMESTEP=228 LAYER=  1 ZONE=  2 ACTIVE CELLS= 3579 NUMBER OF EQUATIONS=    3579
 
 SOLVING FOR HEAD 

 NO OUTPUT CONTROL FOR STRESS PERIOD    1   TIME STEP  229
 SOLVING FOR ZETA FOR LAYER     1 ZONE     2

    1898 UPPER PART EQS.      1882 LOWER PART EQS.    BAND WIDTH + 1 =   77
 STRESS PERIOD=  1 TIMESTEP=229 LAYER=  1 ZONE=  2 ACTIVE CELLS= 3780 NUMBER OF EQUATIONS=    3780
 
 SOLVING FOR HEAD 

 NO OUTPUT CONTROL FOR STRESS PERIOD    1   TIME STEP  230
 SOLVING FOR ZETA FOR LAYER     1 ZONE     2

    1903 UPPER PART EQS.      1935 LOWER PART EQS.    BAND WIDTH + 1 =   86
 STRESS PERIOD=  1 TIMESTEP=230 LAYER=  1 ZONE=  2 ACTIVE CELLS= 3838 NUMBER OF EQUATIONS=    3838
 
 SOLVING FOR HEAD 

 NO OUTPUT CONTROL FOR STRESS PERIOD    1   TIME STEP  231
 SOLVING FOR ZETA FOR LAYER     1 ZONE     2

    1995 UPPER PART EQS.      1963 LOWER PART EQS.    BAND WIDTH + 1 =   86
 STRESS PERIOD=  1 TIMESTEP=231 LAYER=  1 ZONE=  2 ACTIVE CELLS= 3958 NUMBER OF EQUATIONS=    3958
 
 SOLVING FOR HEAD 

 NO OUTPUT CONTROL FOR STRESS PERIOD    1   TIME STEP  232
 SOLVING FOR ZETA FOR LAYER     1 ZONE     2

    1602 UPPER PART EQS.      1621 LOWER PART EQS.    BAND WIDTH + 1 =   78
 STRESS PERIOD=  1 TIMESTEP=232 LAYER=  1 ZONE=  2 ACTIVE CELLS= 3223 NUMBER OF EQUATIONS=    3223
 
 SOLVING FOR HEAD 

 NO OUTPUT CONTROL FOR STRESS PERIOD    1   TIME STEP  233
 SOLVING FOR ZETA FOR LAYER     1 ZONE     2

    1759 UPPER PART EQS.      1730 LOWER PART EQS.    BAND WIDTH + 1 =   78
 STRESS PERIOD=  1 TIMESTEP=233 LAYER=  1 ZONE=  2 ACTIVE CELLS= 3489 NUMBER OF EQUATIONS=    3489
 
 SOLVING FOR HEAD 

 NO OUTPUT CONTROL FOR STRESS PERIOD    1   TIME STEP  234
 SOLVING FOR ZETA FOR LAYER     1 ZONE     2

    1635 UPPER PART EQS.      1679 LOWER PART EQS.    BAND WIDTH + 1 =   85
 STRESS PERIOD=  1 TIMESTEP=234 LAYER=  1 ZONE=  2 ACTIVE CELLS= 3314 NUMBER OF EQUATIONS=    3314
 
 SOLVING FOR HEAD 

 NO OUTPUT CONTROL FOR STRESS PERIOD    1   TIME STEP  235
 SOLVING FOR ZETA FOR LAYER     1 ZONE     2

    1707 UPPER PART EQS.      1666 LOWER PART EQS.    BAND WIDTH + 1 =   82
 STRESS PERIOD=  1 TIMESTEP=235 LAYER=  1 ZONE=  2 ACTIVE CELLS= 3373 NUMBER OF EQUATIONS=    3373
 
 SOLVING FOR HEAD 

 NO OUTPUT CONTROL FOR STRESS PERIOD    1   TIME STEP  236
 SOLVING FOR ZETA FOR LAYER     1 ZONE     2

    1724 UPPER PART EQS.      1750 LOWER PART EQS.    BAND WIDTH + 1 =   97
 STRESS PERIOD=  1 TIMESTEP=236 LAYER=  1 ZONE=  2 ACTIVE CELLS= 3474 NUMBER OF EQUATIONS=    3474
 
 SOLVING FOR HEAD 

 NO OUTPUT CONTROL FOR STRESS PERIOD    1   TIME STEP  237
 SOLVING FOR ZETA FOR LAYER     1 ZONE     2

    1662 UPPER PART EQS.      1659 LOWER PART EQS.    BAND WIDTH + 1 =  101
 STRESS PERIOD=  1 TIMESTEP=237 LAYER=  1 ZONE=  2 ACTIVE CELLS= 3321 NUMBER OF EQUATIONS=    3321
 
 SOLVING FOR HEAD 

 NO OUTPUT CONTROL FOR STRESS PERIOD    1   TIME STEP  238
 SOLVING FOR ZETA FOR LAYER     1 ZONE     2

    1725 UPPER PART EQS.      1701 LOWER PART EQS.    BAND WIDTH + 1 =  122
 INSUFFICIENT MEMORY FOR DE4 SOLVER:
 MXBW MUST BE AT LEAST  122
 
 SOLVING FOR HEAD 

 NO OUTPUT CONTROL FOR STRESS PERIOD    1   TIME STEP  239
 SOLVING FOR ZETA FOR LAYER     1 ZONE     2

    2095 UPPER PART EQS.      2086 LOWER PART EQS.    BAND WIDTH + 1 =   69
 STRESS PERIOD=  1 TIMESTEP=239 LAYER=  1 ZONE=  2 ACTIVE CELLS= 4181 NUMBER OF EQUATIONS=    4181
 
 SOLVING FOR HEAD 

 OUTPUT CONTROL FOR STRESS PERIOD    1   TIME STEP  240
    SAVE HEAD FOR ALL LAYERS
    PRINT BUDGET
 SOLVING FOR ZETA FOR LAYER     1 ZONE     2

    1344 UPPER PART EQS.      1350 LOWER PART EQS.    BAND WIDTH + 1 =   56
 STRESS PERIOD=  1 TIMESTEP=240 LAYER=  1 ZONE=  2 ACTIVE CELLS= 2694 NUMBER OF EQUATIONS=    2694
 UBUDSV SAVING "      ZETASRF  1" ON UNIT 55 AT TIME STEP240, STRESS PERIOD    1


                      VOLUMETRIC SWI ZONE BUDGET FOR ENTIRE MODEL
                     AT END OF TIME STEP  240 IN STRESS PERIOD   1
                                      ZONE     1
  -----------------------------------------------------------------------------------

        CUMULATIVE VOLUMES      L**3       RATES FOR THIS TIME STEP      L**3/T
        ------------------                 ------------------------

              IN:                                      IN:
              ---                                      ---
             BOUNDARIES = 53193097216.0000            BOUNDARIES =      513083.7188
          CONSTANT HEAD = 31748780032.0000         CONSTANT HEAD =       17606.1055
            ZONE CHANGE =370246942720.0000           ZONE CHANGE =     2300146.2500
       ZONE CHG TIP/TOE =       5.4960E+12      ZONE CHG TIP/TOE =    45573664.0000
            ZONE MIXING =           0.0000           ZONE MIXING =           0.0000

               TOTAL IN =       5.9512E+12              TOTAL IN =    48404500.0000

             OUT:                                     OUT:
             ----                                     ----
             BOUNDARIES =           0.0000            BOUNDARIES =           0.0000
          CONSTANT HEAD =       2.4645E+12         CONSTANT HEAD =     3360380.2500
            ZONE CHANGE =       5.8710E+12           ZONE CHANGE =    48760152.0000
       ZONE CHG TIP/TOE =   751073984.0000      ZONE CHG TIP/TOE =        2633.8831
            ZONE MIXING =           0.0000           ZONE MIXING =           0.0000

              TOTAL OUT =       8.3362E+12             TOTAL OUT =    52123164.0000

               IN - OUT =      -2.3851E+12              IN - OUT =    -3718664.0000

    PERCENT DISCREPANCY =         -33.39     PERCENT DISCREPANCY =          -7.40



                      VOLUMETRIC SWI ZONE BUDGET FOR ENTIRE MODEL
                     AT END OF TIME STEP  240 IN STRESS PERIOD   1
                                      ZONE     2
  -----------------------------------------------------------------------------------

        CUMULATIVE VOLUMES      L**3       RATES FOR THIS TIME STEP      L**3/T
        ------------------                 ------------------------

              IN:                                      IN:
              ---                                      ---
             BOUNDARIES = 18924386304.0000            BOUNDARIES =      309611.6875
          CONSTANT HEAD =       2.6428E+12         CONSTANT HEAD =     5800570.5000
            ZONE CHANGE =375030185984.0000           ZONE CHANGE =     3186827.0000
       ZONE CHG TIP/TOE =       4.4319E+14      ZONE CHG TIP/TOE =  4543939584.0000
            ZONE MIXING =           0.0000           ZONE MIXING =           0.0000

               TOTAL IN =       4.4622E+14              TOTAL IN =  4553236480.0000

             OUT:                                     OUT:
             ----                                     ----
             BOUNDARIES =           0.0000            BOUNDARIES =           0.0000
          CONSTANT HEAD =282129825792.0000         CONSTANT HEAD =     3280492.0000
            ZONE CHANGE =       4.4356E+14           ZONE CHANGE =  4546237440.0000
       ZONE CHG TIP/TOE =    30697346.0000      ZONE CHG TIP/TOE =         338.7666
            ZONE MIXING =           0.0000           ZONE MIXING =           0.0000

              TOTAL OUT =       4.4384E+14             TOTAL OUT =  4549518336.0000

               IN - OUT =       2.3850E+12              IN - OUT =     3718144.0000

    PERCENT DISCREPANCY =           0.54     PERCENT DISCREPANCY =           0.08


 HEAD WILL BE SAVED ON UNIT   51 AT END OF TIME STEP  240, STRESS PERIOD    1
1
  VOLUMETRIC BUDGET FOR ENTIRE MODEL AT END OF TIME STEP  240, STRESS PERIOD   1
  ------------------------------------------------------------------------------

     CUMULATIVE VOLUMES      L**3       RATES FOR THIS TIME STEP      L**3/T
     ------------------                 ------------------------

           IN:                                      IN:
           ---                                      ---
             STORAGE =           0.0000               STORAGE =           0.0000
       CONSTANT HEAD =       4.4954E+12         CONSTANT HEAD =    25905578.0000
          SWIADDTOCH =       3.3053E+12            SWIADDTOCH =     1373674.8750
            RECHARGE = 72117600256.0000              RECHARGE =      822695.3750

            TOTAL IN =       7.8728E+12              TOTAL IN =    28101948.0000

          OUT:                                     OUT:
          ----                                     ----
             STORAGE =           0.0000               STORAGE =           0.0000
       CONSTANT HEAD =       3.4573E+12         CONSTANT HEAD =     2394932.7500
          SWIADDTOCH =       4.4154E+12            SWIADDTOCH =    25707016.0000
            RECHARGE =           0.0000              RECHARGE =           0.0000

           TOTAL OUT =       7.8728E+12             TOTAL OUT =    28101948.0000

            IN - OUT =     1572864.0000              IN - OUT =           0.0000

 PERCENT DISCREPANCY =           0.00     PERCENT DISCREPANCY =           0.00






         TIME SUMMARY AT END OF TIME STEP  240 IN STRESS PERIOD    1
                    SECONDS     MINUTES      HOURS       DAYS        YEARS
                    -----------------------------------------------------------
   TIME STEP LENGTH 3.15576E+07 5.25960E+05  8766.0      365.25      1.0000    
 STRESS PERIOD TIME 7.57382E+09 1.26230E+08 2.10384E+06  87660.      240.00    
         TOTAL TIME 7.57382E+09 1.26230E+08 2.10384E+06  87660.      240.00    
1
 
 SOLVING FOR HEAD 

 NO OUTPUT CONTROL FOR STRESS PERIOD    1   TIME STEP  241
 SOLVING FOR ZETA FOR LAYER     1 ZONE     2

    1450 UPPER PART EQS.      1430 LOWER PART EQS.    BAND WIDTH + 1 =   64
 STRESS PERIOD=  1 TIMESTEP=241 LAYER=  1 ZONE=  2 ACTIVE CELLS= 2880 NUMBER OF EQUATIONS=    2880
 
 SOLVING FOR HEAD 

 NO OUTPUT CONTROL FOR STRESS PERIOD    1   TIME STEP  242
 SOLVING FOR ZETA FOR LAYER     1 ZONE     2

    1528 UPPER PART EQS.      1536 LOWER PART EQS.    BAND WIDTH + 1 =   66
 STRESS PERIOD=  1 TIMESTEP=242 LAYER=  1 ZONE=  2 ACTIVE CELLS= 3064 NUMBER OF EQUATIONS=    3064
 
 SOLVING FOR HEAD 

 NO OUTPUT CONTROL FOR STRESS PERIOD    1   TIME STEP  243
 SOLVING FOR ZETA FOR LAYER     1 ZONE     2

    1571 UPPER PART EQS.      1541 LOWER PART EQS.    BAND WIDTH + 1 =   62
 STRESS PERIOD=  1 TIMESTEP=243 LAYER=  1 ZONE=  2 ACTIVE CELLS= 3112 NUMBER OF EQUATIONS=    3112
 
 SOLVING FOR HEAD 

 NO OUTPUT CONTROL FOR STRESS PERIOD    1   TIME STEP  244
 SOLVING FOR ZETA FOR LAYER     1 ZONE     2

    1600 UPPER PART EQS.      1654 LOWER PART EQS.    BAND WIDTH + 1 =   75
 STRESS PERIOD=  1 TIMESTEP=244 LAYER=  1 ZONE=  2 ACTIVE CELLS= 3254 NUMBER OF EQUATIONS=    3254
 
 SOLVING FOR HEAD 

 NO OUTPUT CONTROL FOR STRESS PERIOD    1   TIME STEP  245
 SOLVING FOR ZETA FOR LAYER     1 ZONE     2

    1771 UPPER PART EQS.      1697 LOWER PART EQS.    BAND WIDTH + 1 =  113
 INSUFFICIENT MEMORY FOR DE4 SOLVER:
 MXBW MUST BE AT LEAST  113
 
 SOLVING FOR HEAD 

 NO OUTPUT CONTROL FOR STRESS PERIOD    1   TIME STEP  246
 SOLVING FOR ZETA FOR LAYER     1 ZONE     2

    1954 UPPER PART EQS.      1989 LOWER PART EQS.    BAND WIDTH + 1 =   71
 STRESS PERIOD=  1 TIMESTEP=246 LAYER=  1 ZONE=  2 ACTIVE CELLS= 3943 NUMBER OF EQUATIONS=    3943
 
 SOLVING FOR HEAD 

 NO OUTPUT CONTROL FOR STRESS PERIOD    1   TIME STEP  247
 SOLVING FOR ZETA FOR LAYER     1 ZONE     2

    1577 UPPER PART EQS.      1593 LOWER PART EQS.    BAND WIDTH + 1 =   72
 STRESS PERIOD=  1 TIMESTEP=247 LAYER=  1 ZONE=  2 ACTIVE CELLS= 3170 NUMBER OF EQUATIONS=    3170
 
 SOLVING FOR HEAD 

 NO OUTPUT CONTROL FOR STRESS PERIOD    1   TIME STEP  248
 SOLVING FOR ZETA FOR LAYER     1 ZONE     2

    1685 UPPER PART EQS.      1688 LOWER PART EQS.    BAND WIDTH + 1 =   74
 STRESS PERIOD=  1 TIMESTEP=248 LAYER=  1 ZONE=  2 ACTIVE CELLS= 3373 NUMBER OF EQUATIONS=    3373
 
 SOLVING FOR HEAD 

 NO OUTPUT CONTROL FOR STRESS PERIOD    1   TIME STEP  249
 SOLVING FOR ZETA FOR LAYER     1 ZONE     2

    1834 UPPER PART EQS.      1835 LOWER PART EQS.    BAND WIDTH + 1 =   84
 STRESS PERIOD=  1 TIMESTEP=249 LAYER=  1 ZONE=  2 ACTIVE CELLS= 3669 NUMBER OF EQUATIONS=    3669
 
 SOLVING FOR HEAD 

 NO OUTPUT CONTROL FOR STRESS PERIOD    1   TIME STEP  250
 SOLVING FOR ZETA FOR LAYER     1 ZONE     2

    1824 UPPER PART EQS.      1799 LOWER PART EQS.    BAND WIDTH + 1 =  102
 STRESS PERIOD=  1 TIMESTEP=250 LAYER=  1 ZONE=  2 ACTIVE CELLS= 3623 NUMBER OF EQUATIONS=    3623
 
 SOLVING FOR HEAD 

 NO OUTPUT CONTROL FOR STRESS PERIOD    1   TIME STEP  251
 SOLVING FOR ZETA FOR LAYER     1 ZONE     2

    1807 UPPER PART EQS.      1836 LOWER PART EQS.    BAND WIDTH + 1 =  125
 INSUFFICIENT MEMORY FOR DE4 SOLVER:
 MXBW MUST BE AT LEAST  125
 
 SOLVING FOR HEAD 

 NO OUTPUT CONTROL FOR STRESS PERIOD    1   TIME STEP  252
 SOLVING FOR ZETA FOR LAYER     1 ZONE     2

    2057 UPPER PART EQS.      2048 LOWER PART EQS.    BAND WIDTH + 1 =   91
 STRESS PERIOD=  1 TIMESTEP=252 LAYER=  1 ZONE=  2 ACTIVE CELLS= 4105 NUMBER OF EQUATIONS=    4105
 
 SOLVING FOR HEAD 

 NO OUTPUT CONTROL FOR STRESS PERIOD    1   TIME STEP  253
 SOLVING FOR ZETA FOR LAYER     1 ZONE     2

    1408 UPPER PART EQS.      1419 LOWER PART EQS.    BAND WIDTH + 1 =   68
 STRESS PERIOD=  1 TIMESTEP=253 LAYER=  1 ZONE=  2 ACTIVE CELLS= 2827 NUMBER OF EQUATIONS=    2827
 
 SOLVING FOR HEAD 

 NO OUTPUT CONTROL FOR STRESS PERIOD    1   TIME STEP  254
 SOLVING FOR ZETA FOR LAYER     1 ZONE     2

    1519 UPPER PART EQS.      1534 LOWER PART EQS.    BAND WIDTH + 1 =   71
 STRESS PERIOD=  1 TIMESTEP=254 LAYER=  1 ZONE=  2 ACTIVE CELLS= 3053 NUMBER OF EQUATIONS=    3053
 
 SOLVING FOR HEAD 

 NO OUTPUT CONTROL FOR STRESS PERIOD    1   TIME STEP  255
 SOLVING FOR ZETA FOR LAYER     1 ZONE     2

    1632 UPPER PART EQS.      1608 LOWER PART EQS.    BAND WIDTH + 1 =   76
 STRESS PERIOD=  1 TIMESTEP=255 LAYER=  1 ZONE=  2 ACTIVE CELLS= 3240 NUMBER OF EQUATIONS=    3240
 
 SOLVING FOR HEAD 

 NO OUTPUT CONTROL FOR STRESS PERIOD    1   TIME STEP  256
 SOLVING FOR ZETA FOR LAYER     1 ZONE     2

    1594 UPPER PART EQS.      1617 LOWER PART EQS.    BAND WIDTH + 1 =   81
 STRESS PERIOD=  1 TIMESTEP=256 LAYER=  1 ZONE=  2 ACTIVE CELLS= 3211 NUMBER OF EQUATIONS=    3211
 
 SOLVING FOR HEAD 

 NO OUTPUT CONTROL FOR STRESS PERIOD    1   TIME STEP  257
 SOLVING FOR ZETA FOR LAYER     1 ZONE     2

    1659 UPPER PART EQS.      1628 LOWER PART EQS.    BAND WIDTH + 1 =   90
 STRESS PERIOD=  1 TIMESTEP=257 LAYER=  1 ZONE=  2 ACTIVE CELLS= 3287 NUMBER OF EQUATIONS=    3287
 
 SOLVING FOR HEAD 

 NO OUTPUT CONTROL FOR STRESS PERIOD    1   TIME STEP  258
 SOLVING FOR ZETA FOR LAYER     1 ZONE     2

    1688 UPPER PART EQS.      1721 LOWER PART EQS.    BAND WIDTH + 1 =  106
 INSUFFICIENT MEMORY FOR DE4 SOLVER:
 MXBW MUST BE AT LEAST  106
 
 SOLVING FOR HEAD 

 NO OUTPUT CONTROL FOR STRESS PERIOD    1   TIME STEP  259
 SOLVING FOR ZETA FOR LAYER     1 ZONE     2

    1960 UPPER PART EQS.      1942 LOWER PART EQS.    BAND WIDTH + 1 =   72
 STRESS PERIOD=  1 TIMESTEP=259 LAYER=  1 ZONE=  2 ACTIVE CELLS= 3902 NUMBER OF EQUATIONS=    3902
 
 SOLVING FOR HEAD 

 OUTPUT CONTROL FOR STRESS PERIOD    1   TIME STEP  260
    SAVE HEAD FOR ALL LAYERS
    PRINT BUDGET
 SOLVING FOR ZETA FOR LAYER     1 ZONE     2

    1528 UPPER PART EQS.      1513 LOWER PART EQS.    BAND WIDTH + 1 =   68
 STRESS PERIOD=  1 TIMESTEP=260 LAYER=  1 ZONE=  2 ACTIVE CELLS= 3041 NUMBER OF EQUATIONS=    3041
 UBUDSV SAVING "      ZETASRF  1" ON UNIT 55 AT TIME STEP260, STRESS PERIOD    1


                      VOLUMETRIC SWI ZONE BUDGET FOR ENTIRE MODEL
                     AT END OF TIME STEP  260 IN STRESS PERIOD   1
                                      ZONE     1
  -----------------------------------------------------------------------------------

        CUMULATIVE VOLUMES      L**3       RATES FOR THIS TIME STEP      L**3/T
        ------------------                 ------------------------

              IN:                                      IN:
              ---                                      ---
             BOUNDARIES = 57555378176.0000            BOUNDARIES =      579143.2500
          CONSTANT HEAD = 32198156288.0000         CONSTANT HEAD =       51080.5195
            ZONE CHANGE =395387371520.0000           ZONE CHANGE =     1964597.6250
       ZONE CHG TIP/TOE =       5.8731E+12      ZONE CHG TIP/TOE =    53718044.0000
            ZONE MIXING =           0.0000           ZONE MIXING =           0.0000

               TOTAL IN =       6.3582E+12              TOTAL IN =    56312864.0000

             OUT:                                     OUT:
             ----                                     ----
             BOUNDARIES =           0.0000            BOUNDARIES =           0.0000
          CONSTANT HEAD =       2.5617E+12         CONSTANT HEAD =    39581204.0000
            ZONE CHANGE =       6.2755E+12           ZONE CHANGE =    56862336.0000
       ZONE CHG TIP/TOE =   820010240.0000      ZONE CHG TIP/TOE =        6578.7334
            ZONE MIXING =           0.0000           ZONE MIXING =           0.0000

              TOTAL OUT =       8.8381E+12             TOTAL OUT =    96450112.0000

               IN - OUT =      -2.4799E+12              IN - OUT =   -40137248.0000

    PERCENT DISCREPANCY =         -32.64     PERCENT DISCREPANCY =         -52.55



                      VOLUMETRIC SWI ZONE BUDGET FOR ENTIRE MODEL
                     AT END OF TIME STEP  260 IN STRESS PERIOD   1
                                      ZONE     2
  -----------------------------------------------------------------------------------

        CUMULATIVE VOLUMES      L**3       RATES FOR THIS TIME STEP      L**3/T
        ------------------                 ------------------------

              IN:                                      IN:
              ---                                      ---
             BOUNDARIES = 20571895808.0000            BOUNDARIES =      243552.1250
          CONSTANT HEAD =       2.7575E+12         CONSTANT HEAD =    41908628.0000
            ZONE CHANGE =402515427328.0000           ZONE CHANGE =     3144680.2500
       ZONE CHG TIP/TOE =       4.6795E+14      ZONE CHG TIP/TOE =  2665912576.0000
            ZONE MIXING =           0.0000           ZONE MIXING =           0.0000

               TOTAL IN =       4.7113E+14              TOTAL IN =  2711209472.0000

             OUT:                                     OUT:
             ----                                     ----
             BOUNDARIES =           0.0000            BOUNDARIES =           0.0000
          CONSTANT HEAD =306083430400.0000         CONSTANT HEAD =     3201197.2500
            ZONE CHANGE =       4.6835E+14           ZONE CHANGE =  2667870720.0000
       ZONE CHG TIP/TOE =    33135052.0000      ZONE CHG TIP/TOE =         387.7774
            ZONE MIXING =           0.0000           ZONE MIXING =           0.0000

              TOTAL OUT =       4.6865E+14             TOTAL OUT =  2671072512.0000

               IN - OUT =       2.4798E+12              IN - OUT =    40136960.0000

    PERCENT DISCREPANCY =           0.53     PERCENT DISCREPANCY =           1.49


 HEAD WILL BE SAVED ON UNIT   51 AT END OF TIME STEP  260, STRESS PERIOD    1
1
  VOLUMETRIC BUDGET FOR ENTIRE MODEL AT END OF TIME STEP  260, STRESS PERIOD   1
  ------------------------------------------------------------------------------

     CUMULATIVE VOLUMES      L**3       RATES FOR THIS TIME STEP      L**3/T
     ------------------                 ------------------------

           IN:                                      IN:
           ---                                      ---
             STORAGE =           0.0000               STORAGE =           0.0000
       CONSTANT HEAD =       4.6889E+12         CONSTANT HEAD =    53105132.0000
          SWIADDTOCH =       3.5647E+12            SWIADDTOCH =    40782544.0000
            RECHARGE = 78127415296.0000              RECHARGE =      822695.3750

            TOTAL IN =       8.3317E+12              TOTAL IN =    94710376.0000

          OUT:                                     OUT:
          ----                                     ----
             STORAGE =           0.0000               STORAGE =           0.0000
       CONSTANT HEAD =       3.7174E+12         CONSTANT HEAD =    41099744.0000
          SWIADDTOCH =       4.6143E+12            SWIADDTOCH =    53610624.0000
            RECHARGE =           0.0000              RECHARGE =           0.0000

           TOTAL OUT =       8.3317E+12             TOTAL OUT =    94710368.0000

            IN - OUT =     2097152.0000              IN - OUT =           8.0000

 PERCENT DISCREPANCY =           0.00     PERCENT DISCREPANCY =           0.00






         TIME SUMMARY AT END OF TIME STEP  260 IN STRESS PERIOD    1
                    SECONDS     MINUTES      HOURS       DAYS        YEARS
                    -----------------------------------------------------------
   TIME STEP LENGTH 3.15576E+07 5.25960E+05  8766.0      365.25      1.0000    
 STRESS PERIOD TIME 8.20498E+09 1.36750E+08 2.27916E+06  94965.      260.00    
         TOTAL TIME 8.20498E+09 1.36750E+08 2.27916E+06  94965.      260.00    
1
 
 SOLVING FOR HEAD 

 NO OUTPUT CONTROL FOR STRESS PERIOD    1   TIME STEP  261
 SOLVING FOR ZETA FOR LAYER     1 ZONE     2

    1715 UPPER PART EQS.      1725 LOWER PART EQS.    BAND WIDTH + 1 =   72
 STRESS PERIOD=  1 TIMESTEP=261 LAYER=  1 ZONE=  2 ACTIVE CELLS= 3440 NUMBER OF EQUATIONS=    3440
 
 SOLVING FOR HEAD 

 NO OUTPUT CONTROL FOR STRESS PERIOD    1   TIME STEP  262
 SOLVING FOR ZETA FOR LAYER     1 ZONE     2

    1690 UPPER PART EQS.      1679 LOWER PART EQS.    BAND WIDTH + 1 =   86
 STRESS PERIOD=  1 TIMESTEP=262 LAYER=  1 ZONE=  2 ACTIVE CELLS= 3369 NUMBER OF EQUATIONS=    3369
 
 SOLVING FOR HEAD 

 NO OUTPUT CONTROL FOR STRESS PERIOD    1   TIME STEP  263
 SOLVING FOR ZETA FOR LAYER     1 ZONE     2

    1692 UPPER PART EQS.      1702 LOWER PART EQS.    BAND WIDTH + 1 =   77
 STRESS PERIOD=  1 TIMESTEP=263 LAYER=  1 ZONE=  2 ACTIVE CELLS= 3394 NUMBER OF EQUATIONS=    3394
 
 SOLVING FOR HEAD 

 NO OUTPUT CONTROL FOR STRESS PERIOD    1   TIME STEP  264
 SOLVING FOR ZETA FOR LAYER     1 ZONE     2

    1602 UPPER PART EQS.      1575 LOWER PART EQS.    BAND WIDTH + 1 =   78
 STRESS PERIOD=  1 TIMESTEP=264 LAYER=  1 ZONE=  2 ACTIVE CELLS= 3177 NUMBER OF EQUATIONS=    3177
 
 SOLVING FOR HEAD 

 NO OUTPUT CONTROL FOR STRESS PERIOD    1   TIME STEP  265
 SOLVING FOR ZETA FOR LAYER     1 ZONE     2

    1598 UPPER PART EQS.      1634 LOWER PART EQS.    BAND WIDTH + 1 =   92
 STRESS PERIOD=  1 TIMESTEP=265 LAYER=  1 ZONE=  2 ACTIVE CELLS= 3232 NUMBER OF EQUATIONS=    3232
 
 SOLVING FOR HEAD 

 NO OUTPUT CONTROL FOR STRESS PERIOD    1   TIME STEP  266
 SOLVING FOR ZETA FOR LAYER     1 ZONE     2

    1576 UPPER PART EQS.      1549 LOWER PART EQS.    BAND WIDTH + 1 =   98
 STRESS PERIOD=  1 TIMESTEP=266 LAYER=  1 ZONE=  2 ACTIVE CELLS= 3125 NUMBER OF EQUATIONS=    3125
 
 SOLVING FOR HEAD 

 NO OUTPUT CONTROL FOR STRESS PERIOD    1   TIME STEP  267
 SOLVING FOR ZETA FOR LAYER     1 ZONE     2

    1544 UPPER PART EQS.      1594 LOWER PART EQS.    BAND WIDTH + 1 =  106
 INSUFFICIENT MEMORY FOR DE4 SOLVER:
 MXBW MUST BE AT LEAST  106
 
 SOLVING FOR HEAD 

 NO OUTPUT CONTROL FOR STRESS PERIOD    1   TIME STEP  268
 SOLVING FOR ZETA FOR LAYER     1 ZONE     2

    1837 UPPER PART EQS.      1828 LOWER PART EQS.    BAND WIDTH + 1 =   75
 STRESS PERIOD=  1 TIMESTEP=268 LAYER=  1 ZONE=  2 ACTIVE CELLS= 3665 NUMBER OF EQUATIONS=    3665
 
 SOLVING FOR HEAD 

 NO OUTPUT CONTROL FOR STRESS PERIOD    1   TIME STEP  269
 SOLVING FOR ZETA FOR LAYER     1 ZONE     2

    1524 UPPER PART EQS.      1528 LOWER PART EQS.    BAND WIDTH + 1 =   63
 STRESS PERIOD=  1 TIMESTEP=269 LAYER=  1 ZONE=  2 ACTIVE CELLS= 3052 NUMBER OF EQUATIONS=    3052
 
 SOLVING FOR HEAD 

 NO OUTPUT CONTROL FOR STRESS PERIOD    1   TIME STEP  270
 SOLVING FOR ZETA FOR LAYER     1 ZONE     2

    1615 UPPER PART EQS.      1618 LOWER PART EQS.    BAND WIDTH + 1 =   72
 STRESS PERIOD=  1 TIMESTEP=270 LAYER=  1 ZONE=  2 ACTIVE CELLS= 3233 NUMBER OF EQUATIONS=    3233
 
 SOLVING FOR HEAD 

 NO OUTPUT CONTROL FOR STRESS PERIOD    1   TIME STEP  271
 SOLVING FOR ZETA FOR LAYER     1 ZONE     2

    1748 UPPER PART EQS.      1731 LOWER PART EQS.    BAND WIDTH + 1 =   86
 STRESS PERIOD=  1 TIMESTEP=271 LAYER=  1 ZONE=  2 ACTIVE CELLS= 3479 NUMBER OF EQUATIONS=    3479
 
 SOLVING FOR HEAD 

 NO OUTPUT CONTROL FOR STRESS PERIOD    1   TIME STEP  272
 SOLVING FOR ZETA FOR LAYER     1 ZONE     2

    1746 UPPER PART EQS.      1775 LOWER PART EQS.    BAND WIDTH + 1 =  101
 STRESS PERIOD=  1 TIMESTEP=272 LAYER=  1 ZONE=  2 ACTIVE CELLS= 3521 NUMBER OF EQUATIONS=    3521
 
 SOLVING FOR HEAD 

 NO OUTPUT CONTROL FOR STRESS PERIOD    1   TIME STEP  273
 SOLVING FOR ZETA FOR LAYER     1 ZONE     2

    1769 UPPER PART EQS.      1731 LOWER PART EQS.    BAND WIDTH + 1 =  112
 INSUFFICIENT MEMORY FOR DE4 SOLVER:
 MXBW MUST BE AT LEAST  112
 
 SOLVING FOR HEAD 

 NO OUTPUT CONTROL FOR STRESS PERIOD    1   TIME STEP  274
 SOLVING FOR ZETA FOR LAYER     1 ZONE     2

    1989 UPPER PART EQS.      1997 LOWER PART EQS.    BAND WIDTH + 1 =   85
 STRESS PERIOD=  1 TIMESTEP=274 LAYER=  1 ZONE=  2 ACTIVE CELLS= 3986 NUMBER OF EQUATIONS=    3986
 
 SOLVING FOR HEAD 

 NO OUTPUT CONTROL FOR STRESS PERIOD    1   TIME STEP  275
 SOLVING FOR ZETA FOR LAYER     1 ZONE     2

    1767 UPPER PART EQS.      1761 LOWER PART EQS.    BAND WIDTH + 1 =   75
 STRESS PERIOD=  1 TIMESTEP=275 LAYER=  1 ZONE=  2 ACTIVE CELLS= 3528 NUMBER OF EQUATIONS=    3528
 
 SOLVING FOR HEAD 

 NO OUTPUT CONTROL FOR STRESS PERIOD    1   TIME STEP  276
 SOLVING FOR ZETA FOR LAYER     1 ZONE     2

    1778 UPPER PART EQS.      1796 LOWER PART EQS.    BAND WIDTH + 1 =   76
 STRESS PERIOD=  1 TIMESTEP=276 LAYER=  1 ZONE=  2 ACTIVE CELLS= 3574 NUMBER OF EQUATIONS=    3574
 
 SOLVING FOR HEAD 

 NO OUTPUT CONTROL FOR STRESS PERIOD    1   TIME STEP  277
 SOLVING FOR ZETA FOR LAYER     1 ZONE     2

    1770 UPPER PART EQS.      1741 LOWER PART EQS.    BAND WIDTH + 1 =   82
 STRESS PERIOD=  1 TIMESTEP=277 LAYER=  1 ZONE=  2 ACTIVE CELLS= 3511 NUMBER OF EQUATIONS=    3511
 
 SOLVING FOR HEAD 

 NO OUTPUT CONTROL FOR STRESS PERIOD    1   TIME STEP  278
 SOLVING FOR ZETA FOR LAYER     1 ZONE     2

    1774 UPPER PART EQS.      1819 LOWER PART EQS.    BAND WIDTH + 1 =   94
 STRESS PERIOD=  1 TIMESTEP=278 LAYER=  1 ZONE=  2 ACTIVE CELLS= 3593 NUMBER OF EQUATIONS=    3593
 
 SOLVING FOR HEAD 

 NO OUTPUT CONTROL FOR STRESS PERIOD    1   TIME STEP  279
 SOLVING FOR ZETA FOR LAYER     1 ZONE     2

    1466 UPPER PART EQS.      1417 LOWER PART EQS.    BAND WIDTH + 1 =   93
 STRESS PERIOD=  1 TIMESTEP=279 LAYER=  1 ZONE=  2 ACTIVE CELLS= 2883 NUMBER OF EQUATIONS=    2883
 
 SOLVING FOR HEAD 

 OUTPUT CONTROL FOR STRESS PERIOD    1   TIME STEP  280
    SAVE HEAD FOR ALL LAYERS
    PRINT BUDGET
 SOLVING FOR ZETA FOR LAYER     1 ZONE     2

    1518 UPPER PART EQS.      1568 LOWER PART EQS.    BAND WIDTH + 1 =   89
 STRESS PERIOD=  1 TIMESTEP=280 LAYER=  1 ZONE=  2 ACTIVE CELLS= 3086 NUMBER OF EQUATIONS=    3086
 UBUDSV SAVING "      ZETASRF  1" ON UNIT 55 AT TIME STEP280, STRESS PERIOD    1


                      VOLUMETRIC SWI ZONE BUDGET FOR ENTIRE MODEL
                     AT END OF TIME STEP  280 IN STRESS PERIOD   1
                                      ZONE     1
  -----------------------------------------------------------------------------------

        CUMULATIVE VOLUMES      L**3       RATES FOR THIS TIME STEP      L**3/T
        ------------------                 ------------------------

              IN:                                      IN:
              ---                                      ---
             BOUNDARIES = 61963902976.0000            BOUNDARIES =      547457.0000
          CONSTANT HEAD = 37303377920.0000         CONSTANT HEAD =       31359.2832
            ZONE CHANGE =426468933632.0000           ZONE CHANGE =     4884086.5000
       ZONE CHG TIP/TOE =       6.3462E+12      ZONE CHG TIP/TOE =   107682880.0000
            ZONE MIXING =           0.0000           ZONE MIXING =           0.0000

               TOTAL IN =       6.8719E+12              TOTAL IN =   113145784.0000

             OUT:                                     OUT:
             ----                                     ----
             BOUNDARIES =           0.0000            BOUNDARIES =           0.0000
          CONSTANT HEAD =       2.7423E+12         CONSTANT HEAD =    41320400.0000
            ZONE CHANGE =       6.7802E+12           ZONE CHANGE =   111624488.0000
       ZONE CHG TIP/TOE =   919993984.0000      ZONE CHG TIP/TOE =       11692.5479
            ZONE MIXING =           0.0000           ZONE MIXING =           0.0000

              TOTAL OUT =       9.5234E+12             TOTAL OUT =   152956592.0000

               IN - OUT =      -2.6515E+12              IN - OUT =   -39810808.0000

    PERCENT DISCREPANCY =         -32.34     PERCENT DISCREPANCY =         -29.92



                      VOLUMETRIC SWI ZONE BUDGET FOR ENTIRE MODEL
                     AT END OF TIME STEP  280 IN STRESS PERIOD   1
                                      ZONE     2
  -----------------------------------------------------------------------------------

        CUMULATIVE VOLUMES      L**3       RATES FOR THIS TIME STEP      L**3/T
        ------------------                 ------------------------

              IN:                                      IN:
              ---                                      ---
             BOUNDARIES = 22173165568.0000            BOUNDARIES =      275238.4062
          CONSTANT HEAD =       2.9517E+12         CONSTANT HEAD =    42429320.0000
            ZONE CHANGE =434035163136.0000           ZONE CHANGE =     3941932.7500
       ZONE CHG TIP/TOE =       5.0334E+14      ZONE CHG TIP/TOE =  7210373120.0000
            ZONE MIXING =           0.0000           ZONE MIXING =           0.0000

               TOTAL IN =       5.0675E+14              TOTAL IN =  7257019392.0000

             OUT:                                     OUT:
             ----                                     ----
             BOUNDARIES =           0.0000            BOUNDARIES =           0.0000
          CONSTANT HEAD =330847977472.0000         CONSTANT HEAD =     1962976.1250
            ZONE CHANGE =       5.0376E+14           ZONE CHANGE =  7215245312.0000
       ZONE CHG TIP/TOE =    35451164.0000      ZONE CHG TIP/TOE =         321.6616
            ZONE MIXING =           0.0000           ZONE MIXING =           0.0000

              TOTAL OUT =       5.0409E+14             TOTAL OUT =  7217208832.0000

               IN - OUT =       2.6514E+12              IN - OUT =    39810560.0000

    PERCENT DISCREPANCY =           0.52     PERCENT DISCREPANCY =           0.55


 HEAD WILL BE SAVED ON UNIT   51 AT END OF TIME STEP  280, STRESS PERIOD    1
1
  VOLUMETRIC BUDGET FOR ENTIRE MODEL AT END OF TIME STEP  280, STRESS PERIOD   1
  ------------------------------------------------------------------------------

     CUMULATIVE VOLUMES      L**3       RATES FOR THIS TIME STEP      L**3/T
     ------------------                 ------------------------

           IN:                                      IN:
           ---                                      ---
             STORAGE =           0.0000               STORAGE =           0.0000
       CONSTANT HEAD =       5.0148E+12         CONSTANT HEAD =    10057047.0000
          SWIADDTOCH =       3.8673E+12            SWIADDTOCH =   111375000.0000
            RECHARGE = 84137230336.0000              RECHARGE =      822695.3750

            TOTAL IN =       8.9662E+12              TOTAL IN =   122254744.0000

          OUT:                                     OUT:
          ----                                     ----
             STORAGE =           0.0000               STORAGE =           0.0000
       CONSTANT HEAD =       4.0340E+12         CONSTANT HEAD =   112524960.0000
          SWIADDTOCH =       4.9323E+12            SWIADDTOCH =     9729786.0000
            RECHARGE =           0.0000              RECHARGE =           0.0000

           TOTAL OUT =       8.9662E+12             TOTAL OUT =   122254744.0000

            IN - OUT =     4194304.0000              IN - OUT =           0.0000

 PERCENT DISCREPANCY =           0.00     PERCENT DISCREPANCY =           0.00






         TIME SUMMARY AT END OF TIME STEP  280 IN STRESS PERIOD    1
                    SECONDS     MINUTES      HOURS       DAYS        YEARS
                    -----------------------------------------------------------
   TIME STEP LENGTH 3.15576E+07 5.25960E+05  8766.0      365.25      1.0000    
 STRESS PERIOD TIME 8.83613E+09 1.47269E+08 2.45448E+06 1.02270E+05  280.00    
         TOTAL TIME 8.83613E+09 1.47269E+08 2.45448E+06 1.02270E+05  280.00    
1
 
 SOLVING FOR HEAD 

 NO OUTPUT CONTROL FOR STRESS PERIOD    1   TIME STEP  281
 SOLVING FOR ZETA FOR LAYER     1 ZONE     2

    1590 UPPER PART EQS.      1554 LOWER PART EQS.    BAND WIDTH + 1 =   87
 STRESS PERIOD=  1 TIMESTEP=281 LAYER=  1 ZONE=  2 ACTIVE CELLS= 3144 NUMBER OF EQUATIONS=    3144
 
 SOLVING FOR HEAD 

 NO OUTPUT CONTROL FOR STRESS PERIOD    1   TIME STEP  282
 SOLVING FOR ZETA FOR LAYER     1 ZONE     2

    1526 UPPER PART EQS.      1564 LOWER PART EQS.    BAND WIDTH + 1 =   90
 STRESS PERIOD=  1 TIMESTEP=282 LAYER=  1 ZONE=  2 ACTIVE CELLS= 3090 NUMBER OF EQUATIONS=    3090
 
 SOLVING FOR HEAD 

 NO OUTPUT CONTROL FOR STRESS PERIOD    1   TIME STEP  283
 SOLVING FOR ZETA FOR LAYER     1 ZONE     2

    1541 UPPER PART EQS.      1489 LOWER PART EQS.    BAND WIDTH + 1 =  103
 STRESS PERIOD=  1 TIMESTEP=283 LAYER=  1 ZONE=  2 ACTIVE CELLS= 3030 NUMBER OF EQUATIONS=    3030
 
 SOLVING FOR HEAD 

 NO OUTPUT CONTROL FOR STRESS PERIOD    1   TIME STEP  284
 SOLVING FOR ZETA FOR LAYER     1 ZONE     2

    1550 UPPER PART EQS.      1628 LOWER PART EQS.    BAND WIDTH + 1 =  139
 INSUFFICIENT MEMORY FOR DE4 SOLVER:
 MXBW MUST BE AT LEAST  139
 
 SOLVING FOR HEAD 

 NO OUTPUT CONTROL FOR STRESS PERIOD    1   TIME STEP  285
 SOLVING FOR ZETA FOR LAYER     1 ZONE     2

    1865 UPPER PART EQS.      1824 LOWER PART EQS.    BAND WIDTH + 1 =   77
 STRESS PERIOD=  1 TIMESTEP=285 LAYER=  1 ZONE=  2 ACTIVE CELLS= 3689 NUMBER OF EQUATIONS=    3689
 
 SOLVING FOR HEAD 

 NO OUTPUT CONTROL FOR STRESS PERIOD    1   TIME STEP  286
 SOLVING FOR ZETA FOR LAYER     1 ZONE     2

    1525 UPPER PART EQS.      1555 LOWER PART EQS.    BAND WIDTH + 1 =   59
 STRESS PERIOD=  1 TIMESTEP=286 LAYER=  1 ZONE=  2 ACTIVE CELLS= 3080 NUMBER OF EQUATIONS=    3080
 
 SOLVING FOR HEAD 

 NO OUTPUT CONTROL FOR STRESS PERIOD    1   TIME STEP  287
 SOLVING FOR ZETA FOR LAYER     1 ZONE     2

    1647 UPPER PART EQS.      1614 LOWER PART EQS.    BAND WIDTH + 1 =   78
 STRESS PERIOD=  1 TIMESTEP=287 LAYER=  1 ZONE=  2 ACTIVE CELLS= 3261 NUMBER OF EQUATIONS=    3261
 
 SOLVING FOR HEAD 

 NO OUTPUT CONTROL FOR STRESS PERIOD    1   TIME STEP  288
 SOLVING FOR ZETA FOR LAYER     1 ZONE     2

    1644 UPPER PART EQS.      1688 LOWER PART EQS.    BAND WIDTH + 1 =   85
 STRESS PERIOD=  1 TIMESTEP=288 LAYER=  1 ZONE=  2 ACTIVE CELLS= 3332 NUMBER OF EQUATIONS=    3332
 
 SOLVING FOR HEAD 

 NO OUTPUT CONTROL FOR STRESS PERIOD    1   TIME STEP  289
 SOLVING FOR ZETA FOR LAYER     1 ZONE     2

    1561 UPPER PART EQS.      1508 LOWER PART EQS.    BAND WIDTH + 1 =   84
 STRESS PERIOD=  1 TIMESTEP=289 LAYER=  1 ZONE=  2 ACTIVE CELLS= 3069 NUMBER OF EQUATIONS=    3069
 
 SOLVING FOR HEAD 

 NO OUTPUT CONTROL FOR STRESS PERIOD    1   TIME STEP  290
 SOLVING FOR ZETA FOR LAYER     1 ZONE     2

    1402 UPPER PART EQS.      1476 LOWER PART EQS.    BAND WIDTH + 1 =   97
 STRESS PERIOD=  1 TIMESTEP=290 LAYER=  1 ZONE=  2 ACTIVE CELLS= 2878 NUMBER OF EQUATIONS=    2878
 
 SOLVING FOR HEAD 

 NO OUTPUT CONTROL FOR STRESS PERIOD    1   TIME STEP  291
 SOLVING FOR ZETA FOR LAYER     1 ZONE     2

    1508 UPPER PART EQS.      1409 LOWER PART EQS.    BAND WIDTH + 1 =  120
 INSUFFICIENT MEMORY FOR DE4 SOLVER:
 MXBW MUST BE AT LEAST  120
 
 SOLVING FOR HEAD 

 NO OUTPUT CONTROL FOR STRESS PERIOD    1   TIME STEP  292
 SOLVING FOR ZETA FOR LAYER     1 ZONE     2

    1727 UPPER PART EQS.      1731 LOWER PART EQS.    BAND WIDTH + 1 =   62
 STRESS PERIOD=  1 TIMESTEP=292 LAYER=  1 ZONE=  2 ACTIVE CELLS= 3458 NUMBER OF EQUATIONS=    3458
 
 SOLVING FOR HEAD 

 NO OUTPUT CONTROL FOR STRESS PERIOD    1   TIME STEP  293
 SOLVING FOR ZETA FOR LAYER     1 ZONE     2

    1276 UPPER PART EQS.      1285 LOWER PART EQS.    BAND WIDTH + 1 =   64
 STRESS PERIOD=  1 TIMESTEP=293 LAYER=  1 ZONE=  2 ACTIVE CELLS= 2561 NUMBER OF EQUATIONS=    2561
 
 SOLVING FOR HEAD 

 NO OUTPUT CONTROL FOR STRESS PERIOD    1   TIME STEP  294
 SOLVING FOR ZETA FOR LAYER     1 ZONE     2

    1445 UPPER PART EQS.      1442 LOWER PART EQS.    BAND WIDTH + 1 =   80
 STRESS PERIOD=  1 TIMESTEP=294 LAYER=  1 ZONE=  2 ACTIVE CELLS= 2887 NUMBER OF EQUATIONS=    2887
 
 SOLVING FOR HEAD 

 NO OUTPUT CONTROL FOR STRESS PERIOD    1   TIME STEP  295
 SOLVING FOR ZETA FOR LAYER     1 ZONE     2

    1440 UPPER PART EQS.      1420 LOWER PART EQS.    BAND WIDTH + 1 =   84
 STRESS PERIOD=  1 TIMESTEP=295 LAYER=  1 ZONE=  2 ACTIVE CELLS= 2860 NUMBER OF EQUATIONS=    2860
 
 SOLVING FOR HEAD 

 NO OUTPUT CONTROL FOR STRESS PERIOD    1   TIME STEP  296
 SOLVING FOR ZETA FOR LAYER     1 ZONE     2

    1420 UPPER PART EQS.      1458 LOWER PART EQS.    BAND WIDTH + 1 =   86
 STRESS PERIOD=  1 TIMESTEP=296 LAYER=  1 ZONE=  2 ACTIVE CELLS= 2878 NUMBER OF EQUATIONS=    2878
 
 SOLVING FOR HEAD 

 NO OUTPUT CONTROL FOR STRESS PERIOD    1   TIME STEP  297
 SOLVING FOR ZETA FOR LAYER     1 ZONE     2

    1517 UPPER PART EQS.      1459 LOWER PART EQS.    BAND WIDTH + 1 =  103
 STRESS PERIOD=  1 TIMESTEP=297 LAYER=  1 ZONE=  2 ACTIVE CELLS= 2976 NUMBER OF EQUATIONS=    2976
 
 SOLVING FOR HEAD 

 NO OUTPUT CONTROL FOR STRESS PERIOD    1   TIME STEP  298
 SOLVING FOR ZETA FOR LAYER     1 ZONE     2

    1497 UPPER PART EQS.      1546 LOWER PART EQS.    BAND WIDTH + 1 =  102
 STRESS PERIOD=  1 TIMESTEP=298 LAYER=  1 ZONE=  2 ACTIVE CELLS= 3043 NUMBER OF EQUATIONS=    3043
 
 SOLVING FOR HEAD 

 NO OUTPUT CONTROL FOR STRESS PERIOD    1   TIME STEP  299
 SOLVING FOR ZETA FOR LAYER     1 ZONE     2

    1581 UPPER PART EQS.      1531 LOWER PART EQS.    BAND WIDTH + 1 =  132
 INSUFFICIENT MEMORY FOR DE4 SOLVER:
 MXBW MUST BE AT LEAST  132
 
 SOLVING FOR HEAD 

 OUTPUT CONTROL FOR STRESS PERIOD    1   TIME STEP  300
    SAVE HEAD FOR ALL LAYERS
    PRINT BUDGET
 SOLVING FOR ZETA FOR LAYER     1 ZONE     2

    1791 UPPER PART EQS.      1803 LOWER PART EQS.    BAND WIDTH + 1 =   75
 STRESS PERIOD=  1 TIMESTEP=300 LAYER=  1 ZONE=  2 ACTIVE CELLS= 3594 NUMBER OF EQUATIONS=    3594
 UBUDSV SAVING "      ZETASRF  1" ON UNIT 55 AT TIME STEP300, STRESS PERIOD    1


                      VOLUMETRIC SWI ZONE BUDGET FOR ENTIRE MODEL
                     AT END OF TIME STEP  300 IN STRESS PERIOD   1
                                      ZONE     1
  -----------------------------------------------------------------------------------

        CUMULATIVE VOLUMES      L**3       RATES FOR THIS TIME STEP      L**3/T
        ------------------                 ------------------------

              IN:                                      IN:
              ---                                      ---
             BOUNDARIES = 65965465600.0000            BOUNDARIES =      575287.6875
          CONSTANT HEAD = 39045812224.0000         CONSTANT HEAD =           0.0000
            ZONE CHANGE =455604568064.0000           ZONE CHANGE =     6518525.5000
       ZONE CHG TIP/TOE =       6.8098E+12      ZONE CHG TIP/TOE =    36031116.0000
            ZONE MIXING =           0.0000           ZONE MIXING =           0.0000

               TOTAL IN =       7.3704E+12              TOTAL IN =    43124928.0000

             OUT:                                     OUT:
             ----                                     ----
             BOUNDARIES =           0.0000            BOUNDARIES =           0.0000
          CONSTANT HEAD =       2.9962E+12         CONSTANT HEAD =    36104112.0000
            ZONE CHANGE =       7.2684E+12           ZONE CHANGE =    39699868.0000
       ZONE CHG TIP/TOE =   972996736.0000      ZONE CHG TIP/TOE =       30266.6523
            ZONE MIXING =           0.0000           ZONE MIXING =           0.0000

              TOTAL OUT =       1.0266E+13             TOTAL OUT =    75834248.0000

               IN - OUT =      -2.8952E+12              IN - OUT =   -32709320.0000

    PERCENT DISCREPANCY =         -32.83     PERCENT DISCREPANCY =         -54.99



                      VOLUMETRIC SWI ZONE BUDGET FOR ENTIRE MODEL
                     AT END OF TIME STEP  300 IN STRESS PERIOD   1
                                      ZONE     2
  -----------------------------------------------------------------------------------

        CUMULATIVE VOLUMES      L**3       RATES FOR THIS TIME STEP      L**3/T
        ------------------                 ------------------------

              IN:                                      IN:
              ---                                      ---
             BOUNDARIES = 24181395456.0000            BOUNDARIES =      247407.6875
          CONSTANT HEAD =       3.2201E+12         CONSTANT HEAD =    37662376.0000
            ZONE CHANGE =458642882560.0000           ZONE CHANGE =     3669008.7500
       ZONE CHG TIP/TOE =       5.3531E+14      ZONE CHG TIP/TOE =   950155584.0000
            ZONE MIXING =           0.0000           ZONE MIXING =           0.0000

               TOTAL IN =       5.3901E+14              TOTAL IN =   991734400.0000

             OUT:                                     OUT:
             ----                                     ----
             BOUNDARIES =           0.0000            BOUNDARIES =           0.0000
          CONSTANT HEAD =353064452096.0000         CONSTANT HEAD =     2380959.2500
            ZONE CHANGE =       5.3576E+14           ZONE CHANGE =   956643840.0000
       ZONE CHG TIP/TOE =    37879464.0000      ZONE CHG TIP/TOE =         256.1302
            ZONE MIXING =           0.0000           ZONE MIXING =           0.0000

              TOTAL OUT =       5.3611E+14             TOTAL OUT =   959025024.0000

               IN - OUT =       2.8951E+12              IN - OUT =    32709376.0000

    PERCENT DISCREPANCY =           0.54     PERCENT DISCREPANCY =           3.35


 HEAD WILL BE SAVED ON UNIT   51 AT END OF TIME STEP  300, STRESS PERIOD    1
1
  VOLUMETRIC BUDGET FOR ENTIRE MODEL AT END OF TIME STEP  300, STRESS PERIOD   1
  ------------------------------------------------------------------------------

     CUMULATIVE VOLUMES      L**3       RATES FOR THIS TIME STEP      L**3/T
     ------------------                 ------------------------

           IN:                                      IN:
           ---                                      ---
             STORAGE =           0.0000               STORAGE =           0.0000
       CONSTANT HEAD =       5.4613E+12         CONSTANT HEAD =    54220288.0000
          SWIADDTOCH =       4.0955E+12            SWIADDTOCH =    32169176.0000
            RECHARGE = 90147045376.0000              RECHARGE =      822695.3750

            TOTAL IN =       9.6469E+12              TOTAL IN =    87212160.0000

          OUT:                                     OUT:
          ----                                     ----
             STORAGE =           0.0000               STORAGE =           0.0000
       CONSTANT HEAD =       4.2702E+12         CONSTANT HEAD =    33090240.0000
          SWIADDTOCH =       5.3767E+12            SWIADDTOCH =    54121920.0000
            RECHARGE =           0.0000              RECHARGE =           0.0000

           TOTAL OUT =       9.6469E+12             TOTAL OUT =    87212160.0000

            IN - OUT =     4194304.0000              IN - OUT =           0.0000

 PERCENT DISCREPANCY =           0.00     PERCENT DISCREPANCY =           0.00






         TIME SUMMARY AT END OF TIME STEP  300 IN STRESS PERIOD    1
                    SECONDS     MINUTES      HOURS       DAYS        YEARS
                    -----------------------------------------------------------
   TIME STEP LENGTH 3.15576E+07 5.25960E+05  8766.0      365.25      1.0000    
 STRESS PERIOD TIME 9.46728E+09 1.57788E+08 2.62980E+06 1.09575E+05  300.00    
         TOTAL TIME 9.46728E+09 1.57788E+08 2.62980E+06 1.09575E+05  300.00    
1
 
 SOLVING FOR HEAD 

 NO OUTPUT CONTROL FOR STRESS PERIOD    1   TIME STEP  301
 SOLVING FOR ZETA FOR LAYER     1 ZONE     2

    1367 UPPER PART EQS.      1386 LOWER PART EQS.    BAND WIDTH + 1 =   68
 STRESS PERIOD=  1 TIMESTEP=301 LAYER=  1 ZONE=  2 ACTIVE CELLS= 2753 NUMBER OF EQUATIONS=    2753
 
 SOLVING FOR HEAD 

 NO OUTPUT CONTROL FOR STRESS PERIOD    1   TIME STEP  302
 SOLVING FOR ZETA FOR LAYER     1 ZONE     2

    1525 UPPER PART EQS.      1515 LOWER PART EQS.    BAND WIDTH + 1 =   69
 STRESS PERIOD=  1 TIMESTEP=302 LAYER=  1 ZONE=  2 ACTIVE CELLS= 3040 NUMBER OF EQUATIONS=    3040
 
 SOLVING FOR HEAD 

 NO OUTPUT CONTROL FOR STRESS PERIOD    1   TIME STEP  303
 SOLVING FOR ZETA FOR LAYER     1 ZONE     2

    1492 UPPER PART EQS.      1531 LOWER PART EQS.    BAND WIDTH + 1 =   90
 STRESS PERIOD=  1 TIMESTEP=303 LAYER=  1 ZONE=  2 ACTIVE CELLS= 3023 NUMBER OF EQUATIONS=    3023
 
 SOLVING FOR HEAD 

 NO OUTPUT CONTROL FOR STRESS PERIOD    1   TIME STEP  304
 SOLVING FOR ZETA FOR LAYER     1 ZONE     2

    1567 UPPER PART EQS.      1495 LOWER PART EQS.    BAND WIDTH + 1 =  107
 INSUFFICIENT MEMORY FOR DE4 SOLVER:
 MXBW MUST BE AT LEAST  107
 
 SOLVING FOR HEAD 

 NO OUTPUT CONTROL FOR STRESS PERIOD    1   TIME STEP  305
 SOLVING FOR ZETA FOR LAYER     1 ZONE     2

    1708 UPPER PART EQS.      1727 LOWER PART EQS.    BAND WIDTH + 1 =   70
 STRESS PERIOD=  1 TIMESTEP=305 LAYER=  1 ZONE=  2 ACTIVE CELLS= 3435 NUMBER OF EQUATIONS=    3435
 
 SOLVING FOR HEAD 

 NO OUTPUT CONTROL FOR STRESS PERIOD    1   TIME STEP  306
 SOLVING FOR ZETA FOR LAYER     1 ZONE     2

    1600 UPPER PART EQS.      1576 LOWER PART EQS.    BAND WIDTH + 1 =   79
 STRESS PERIOD=  1 TIMESTEP=306 LAYER=  1 ZONE=  2 ACTIVE CELLS= 3176 NUMBER OF EQUATIONS=    3176
 
 SOLVING FOR HEAD 

 NO OUTPUT CONTROL FOR STRESS PERIOD    1   TIME STEP  307
 SOLVING FOR ZETA FOR LAYER     1 ZONE     2

    1653 UPPER PART EQS.      1675 LOWER PART EQS.    BAND WIDTH + 1 =   67
 STRESS PERIOD=  1 TIMESTEP=307 LAYER=  1 ZONE=  2 ACTIVE CELLS= 3328 NUMBER OF EQUATIONS=    3328
 
 SOLVING FOR HEAD 

 NO OUTPUT CONTROL FOR STRESS PERIOD    1   TIME STEP  308
 SOLVING FOR ZETA FOR LAYER     1 ZONE     2

    1724 UPPER PART EQS.      1701 LOWER PART EQS.    BAND WIDTH + 1 =   81
 STRESS PERIOD=  1 TIMESTEP=308 LAYER=  1 ZONE=  2 ACTIVE CELLS= 3425 NUMBER OF EQUATIONS=    3425
 
 SOLVING FOR HEAD 

 NO OUTPUT CONTROL FOR STRESS PERIOD    1   TIME STEP  309
 SOLVING FOR ZETA FOR LAYER     1 ZONE     2

    1689 UPPER PART EQS.      1714 LOWER PART EQS.    BAND WIDTH + 1 =   72
 STRESS PERIOD=  1 TIMESTEP=309 LAYER=  1 ZONE=  2 ACTIVE CELLS= 3403 NUMBER OF EQUATIONS=    3403
 
 SOLVING FOR HEAD 

 NO OUTPUT CONTROL FOR STRESS PERIOD    1   TIME STEP  310
 SOLVING FOR ZETA FOR LAYER     1 ZONE     2

    1765 UPPER PART EQS.      1731 LOWER PART EQS.    BAND WIDTH + 1 =   92
 STRESS PERIOD=  1 TIMESTEP=310 LAYER=  1 ZONE=  2 ACTIVE CELLS= 3496 NUMBER OF EQUATIONS=    3496
 
 SOLVING FOR HEAD 

 NO OUTPUT CONTROL FOR STRESS PERIOD    1   TIME STEP  311
 SOLVING FOR ZETA FOR LAYER     1 ZONE     2

    1716 UPPER PART EQS.      1770 LOWER PART EQS.    BAND WIDTH + 1 =   96
 STRESS PERIOD=  1 TIMESTEP=311 LAYER=  1 ZONE=  2 ACTIVE CELLS= 3486 NUMBER OF EQUATIONS=    3486
 
 SOLVING FOR HEAD 

 NO OUTPUT CONTROL FOR STRESS PERIOD    1   TIME STEP  312
 SOLVING FOR ZETA FOR LAYER     1 ZONE     2

    1755 UPPER PART EQS.      1708 LOWER PART EQS.    BAND WIDTH + 1 =  108
 INSUFFICIENT MEMORY FOR DE4 SOLVER:
 MXBW MUST BE AT LEAST  108
 
 SOLVING FOR HEAD 

 NO OUTPUT CONTROL FOR STRESS PERIOD    1   TIME STEP  313
 SOLVING FOR ZETA FOR LAYER     1 ZONE     2

    1987 UPPER PART EQS.      1998 LOWER PART EQS.    BAND WIDTH + 1 =   73
 STRESS PERIOD=  1 TIMESTEP=313 LAYER=  1 ZONE=  2 ACTIVE CELLS= 3985 NUMBER OF EQUATIONS=    3985
 
 SOLVING FOR HEAD 

 NO OUTPUT CONTROL FOR STRESS PERIOD    1   TIME STEP  314
 SOLVING FOR ZETA FOR LAYER     1 ZONE     2

    1579 UPPER PART EQS.      1555 LOWER PART EQS.    BAND WIDTH + 1 =   66
 STRESS PERIOD=  1 TIMESTEP=314 LAYER=  1 ZONE=  2 ACTIVE CELLS= 3134 NUMBER OF EQUATIONS=    3134
 
 SOLVING FOR HEAD 

 NO OUTPUT CONTROL FOR STRESS PERIOD    1   TIME STEP  315
 SOLVING FOR ZETA FOR LAYER     1 ZONE     2

    1481 UPPER PART EQS.      1493 LOWER PART EQS.    BAND WIDTH + 1 =   63
 STRESS PERIOD=  1 TIMESTEP=315 LAYER=  1 ZONE=  2 ACTIVE CELLS= 2974 NUMBER OF EQUATIONS=    2974
 
 SOLVING FOR HEAD 

 NO OUTPUT CONTROL FOR STRESS PERIOD    1   TIME STEP  316
 SOLVING FOR ZETA FOR LAYER     1 ZONE     2

    1595 UPPER PART EQS.      1610 LOWER PART EQS.    BAND WIDTH + 1 =   61
 STRESS PERIOD=  1 TIMESTEP=316 LAYER=  1 ZONE=  2 ACTIVE CELLS= 3205 NUMBER OF EQUATIONS=    3205
 
 SOLVING FOR HEAD 

 NO OUTPUT CONTROL FOR STRESS PERIOD    1   TIME STEP  317
 SOLVING FOR ZETA FOR LAYER     1 ZONE     2

    1663 UPPER PART EQS.      1613 LOWER PART EQS.    BAND WIDTH + 1 =  108
 INSUFFICIENT MEMORY FOR DE4 SOLVER:
 MXBW MUST BE AT LEAST  108
 
 SOLVING FOR HEAD 

 NO OUTPUT CONTROL FOR STRESS PERIOD    1   TIME STEP  318
 SOLVING FOR ZETA FOR LAYER     1 ZONE     2

    1863 UPPER PART EQS.      1885 LOWER PART EQS.    BAND WIDTH + 1 =   67
 STRESS PERIOD=  1 TIMESTEP=318 LAYER=  1 ZONE=  2 ACTIVE CELLS= 3748 NUMBER OF EQUATIONS=    3748
 
 SOLVING FOR HEAD 

 NO OUTPUT CONTROL FOR STRESS PERIOD    1   TIME STEP  319
 SOLVING FOR ZETA FOR LAYER     1 ZONE     2

    1573 UPPER PART EQS.      1562 LOWER PART EQS.    BAND WIDTH + 1 =   58
 STRESS PERIOD=  1 TIMESTEP=319 LAYER=  1 ZONE=  2 ACTIVE CELLS= 3135 NUMBER OF EQUATIONS=    3135
 
 SOLVING FOR HEAD 

 OUTPUT CONTROL FOR STRESS PERIOD    1   TIME STEP  320
    SAVE HEAD FOR ALL LAYERS
    PRINT BUDGET
 SOLVING FOR ZETA FOR LAYER     1 ZONE     2

    1666 UPPER PART EQS.      1655 LOWER PART EQS.    BAND WIDTH + 1 =   61
 STRESS PERIOD=  1 TIMESTEP=320 LAYER=  1 ZONE=  2 ACTIVE CELLS= 3321 NUMBER OF EQUATIONS=    3321
 UBUDSV SAVING "      ZETASRF  1" ON UNIT 55 AT TIME STEP320, STRESS PERIOD    1


                      VOLUMETRIC SWI ZONE BUDGET FOR ENTIRE MODEL
                     AT END OF TIME STEP  320 IN STRESS PERIOD   1
                                      ZONE     1
  -----------------------------------------------------------------------------------

        CUMULATIVE VOLUMES      L**3       RATES FOR THIS TIME STEP      L**3/T
        ------------------                 ------------------------

              IN:                                      IN:
              ---                                      ---
             BOUNDARIES = 70248824832.0000            BOUNDARIES =      603947.6250
          CONSTANT HEAD = 39638405120.0000         CONSTANT HEAD =        1883.4504
            ZONE CHANGE =479785680896.0000           ZONE CHANGE =     3339079.5000
       ZONE CHG TIP/TOE =       7.2324E+12      ZONE CHG TIP/TOE =    65986352.0000
            ZONE MIXING =           0.0000           ZONE MIXING =           0.0000

               TOTAL IN =       7.8221E+12              TOTAL IN =    69931264.0000

             OUT:                                     OUT:
             ----                                     ----
             BOUNDARIES =           0.0000            BOUNDARIES =           0.0000
          CONSTANT HEAD =       3.1581E+12         CONSTANT HEAD =    62369652.0000
            ZONE CHANGE =       7.7182E+12           ZONE CHANGE =    69648680.0000
       ZONE CHG TIP/TOE =  1031449088.0000      ZONE CHG TIP/TOE =        2902.3691
            ZONE MIXING =           0.0000           ZONE MIXING =           0.0000

              TOTAL OUT =       1.0877E+13             TOTAL OUT =   132021240.0000

               IN - OUT =      -3.0552E+12              IN - OUT =   -62089976.0000

    PERCENT DISCREPANCY =         -32.68     PERCENT DISCREPANCY =         -61.49



                      VOLUMETRIC SWI ZONE BUDGET FOR ENTIRE MODEL
                     AT END OF TIME STEP  320 IN STRESS PERIOD   1
                                      ZONE     2
  -----------------------------------------------------------------------------------

        CUMULATIVE VOLUMES      L**3       RATES FOR THIS TIME STEP      L**3/T
        ------------------                 ------------------------

              IN:                                      IN:
              ---                                      ---
             BOUNDARIES = 25907814400.0000            BOUNDARIES =      218747.7656
          CONSTANT HEAD =       3.3976E+12         CONSTANT HEAD =    64880936.0000
            ZONE CHANGE =485792415744.0000           ZONE CHANGE =     3662626.7500
       ZONE CHG TIP/TOE =       5.6266E+14      ZONE CHG TIP/TOE =  3397736448.0000
            ZONE MIXING =           0.0000           ZONE MIXING =           0.0000

               TOTAL IN =       5.6657E+14              TOTAL IN =  3466498816.0000

             OUT:                                     OUT:
             ----                                     ----
             BOUNDARIES =           0.0000            BOUNDARIES =           0.0000
          CONSTANT HEAD =375271292928.0000         CONSTANT HEAD =     3335857.7500
            ZONE CHANGE =       5.6314E+14           ZONE CHANGE =  3401072640.0000
       ZONE CHG TIP/TOE =    40201924.0000      ZONE CHG TIP/TOE =         299.2477
            ZONE MIXING =           0.0000           ZONE MIXING =           0.0000

              TOTAL OUT =       5.6351E+14             TOTAL OUT =  3404408832.0000

               IN - OUT =       3.0551E+12              IN - OUT =    62089984.0000

    PERCENT DISCREPANCY =           0.54     PERCENT DISCREPANCY =           1.81


 HEAD WILL BE SAVED ON UNIT   51 AT END OF TIME STEP  320, STRESS PERIOD    1
1
  VOLUMETRIC BUDGET FOR ENTIRE MODEL AT END OF TIME STEP  320, STRESS PERIOD   1
  ------------------------------------------------------------------------------

     CUMULATIVE VOLUMES      L**3       RATES FOR THIS TIME STEP      L**3/T
     ------------------                 ------------------------

           IN:                                      IN:
           ---                                      ---
             STORAGE =           0.0000               STORAGE =           0.0000
       CONSTANT HEAD =       5.7864E+12         CONSTANT HEAD =    59114360.0000
          SWIADDTOCH =       4.3594E+12            SWIADDTOCH =   136630048.0000
            RECHARGE = 96156860416.0000              RECHARGE =      822695.3750

            TOTAL IN =       1.0242E+13              TOTAL IN =   196567104.0000

          OUT:                                     OUT:
          ----                                     ----
             STORAGE =           0.0000               STORAGE =           0.0000
       CONSTANT HEAD =       4.5431E+12         CONSTANT HEAD =   143472080.0000
          SWIADDTOCH =       5.6988E+12            SWIADDTOCH =    53095012.0000
            RECHARGE =           0.0000              RECHARGE =           0.0000

           TOTAL OUT =       1.0242E+13             TOTAL OUT =   196567088.0000

            IN - OUT =     6291456.0000              IN - OUT =          16.0000

 PERCENT DISCREPANCY =           0.00     PERCENT DISCREPANCY =           0.00






         TIME SUMMARY AT END OF TIME STEP  320 IN STRESS PERIOD    1
                    SECONDS     MINUTES      HOURS       DAYS        YEARS
                    -----------------------------------------------------------
   TIME STEP LENGTH 3.15576E+07 5.25960E+05  8766.0      365.25      1.0000    
 STRESS PERIOD TIME 1.00984E+10 1.68307E+08 2.80512E+06 1.16880E+05  320.00    
         TOTAL TIME 1.00984E+10 1.68307E+08 2.80512E+06 1.16880E+05  320.00    
1
 
 SOLVING FOR HEAD 

 NO OUTPUT CONTROL FOR STRESS PERIOD    1   TIME STEP  321
 SOLVING FOR ZETA FOR LAYER     1 ZONE     2

    1679 UPPER PART EQS.      1698 LOWER PART EQS.    BAND WIDTH + 1 =   71
 STRESS PERIOD=  1 TIMESTEP=321 LAYER=  1 ZONE=  2 ACTIVE CELLS= 3377 NUMBER OF EQUATIONS=    3377
 
 SOLVING FOR HEAD 

 NO OUTPUT CONTROL FOR STRESS PERIOD    1   TIME STEP  322
 SOLVING FOR ZETA FOR LAYER     1 ZONE     2

    1697 UPPER PART EQS.      1649 LOWER PART EQS.    BAND WIDTH + 1 =   73
 STRESS PERIOD=  1 TIMESTEP=322 LAYER=  1 ZONE=  2 ACTIVE CELLS= 3346 NUMBER OF EQUATIONS=    3346
 
 SOLVING FOR HEAD 

 NO OUTPUT CONTROL FOR STRESS PERIOD    1   TIME STEP  323
 SOLVING FOR ZETA FOR LAYER     1 ZONE     2

    1669 UPPER PART EQS.      1736 LOWER PART EQS.    BAND WIDTH + 1 =   89
 STRESS PERIOD=  1 TIMESTEP=323 LAYER=  1 ZONE=  2 ACTIVE CELLS= 3405 NUMBER OF EQUATIONS=    3405
 
 SOLVING FOR HEAD 

 NO OUTPUT CONTROL FOR STRESS PERIOD    1   TIME STEP  324
 SOLVING FOR ZETA FOR LAYER     1 ZONE     2

    1665 UPPER PART EQS.      1596 LOWER PART EQS.    BAND WIDTH + 1 =   78
 STRESS PERIOD=  1 TIMESTEP=324 LAYER=  1 ZONE=  2 ACTIVE CELLS= 3261 NUMBER OF EQUATIONS=    3261
 
 SOLVING FOR HEAD 

 NO OUTPUT CONTROL FOR STRESS PERIOD    1   TIME STEP  325
 SOLVING FOR ZETA FOR LAYER     1 ZONE     2

    1621 UPPER PART EQS.      1673 LOWER PART EQS.    BAND WIDTH + 1 =   82
 STRESS PERIOD=  1 TIMESTEP=325 LAYER=  1 ZONE=  2 ACTIVE CELLS= 3294 NUMBER OF EQUATIONS=    3294
 
 SOLVING FOR HEAD 

 NO OUTPUT CONTROL FOR STRESS PERIOD    1   TIME STEP  326
 SOLVING FOR ZETA FOR LAYER     1 ZONE     2

    1627 UPPER PART EQS.      1585 LOWER PART EQS.    BAND WIDTH + 1 =   82
 STRESS PERIOD=  1 TIMESTEP=326 LAYER=  1 ZONE=  2 ACTIVE CELLS= 3212 NUMBER OF EQUATIONS=    3212
 
 SOLVING FOR HEAD 

 NO OUTPUT CONTROL FOR STRESS PERIOD    1   TIME STEP  327
 SOLVING FOR ZETA FOR LAYER     1 ZONE     2

    1561 UPPER PART EQS.      1608 LOWER PART EQS.    BAND WIDTH + 1 =   93
 STRESS PERIOD=  1 TIMESTEP=327 LAYER=  1 ZONE=  2 ACTIVE CELLS= 3169 NUMBER OF EQUATIONS=    3169
 
 SOLVING FOR HEAD 

 NO OUTPUT CONTROL FOR STRESS PERIOD    1   TIME STEP  328
 SOLVING FOR ZETA FOR LAYER     1 ZONE     2

    1725 UPPER PART EQS.      1699 LOWER PART EQS.    BAND WIDTH + 1 =   91
 STRESS PERIOD=  1 TIMESTEP=328 LAYER=  1 ZONE=  2 ACTIVE CELLS= 3424 NUMBER OF EQUATIONS=    3424
 
 SOLVING FOR HEAD 

 NO OUTPUT CONTROL FOR STRESS PERIOD    1   TIME STEP  329
 SOLVING FOR ZETA FOR LAYER     1 ZONE     2

    1678 UPPER PART EQS.      1716 LOWER PART EQS.    BAND WIDTH + 1 =   89
 STRESS PERIOD=  1 TIMESTEP=329 LAYER=  1 ZONE=  2 ACTIVE CELLS= 3394 NUMBER OF EQUATIONS=    3394
 
 SOLVING FOR HEAD 

 NO OUTPUT CONTROL FOR STRESS PERIOD    1   TIME STEP  330
 SOLVING FOR ZETA FOR LAYER     1 ZONE     2

    1780 UPPER PART EQS.      1735 LOWER PART EQS.    BAND WIDTH + 1 =   87
 STRESS PERIOD=  1 TIMESTEP=330 LAYER=  1 ZONE=  2 ACTIVE CELLS= 3515 NUMBER OF EQUATIONS=    3515
 
 SOLVING FOR HEAD 

 NO OUTPUT CONTROL FOR STRESS PERIOD    1   TIME STEP  331
 SOLVING FOR ZETA FOR LAYER     1 ZONE     2

    1697 UPPER PART EQS.      1760 LOWER PART EQS.    BAND WIDTH + 1 =  106
 INSUFFICIENT MEMORY FOR DE4 SOLVER:
 MXBW MUST BE AT LEAST  106
 
 SOLVING FOR HEAD 

 NO OUTPUT CONTROL FOR STRESS PERIOD    1   TIME STEP  332
 SOLVING FOR ZETA FOR LAYER     1 ZONE     2

    2036 UPPER PART EQS.      2028 LOWER PART EQS.    BAND WIDTH + 1 =   75
 STRESS PERIOD=  1 TIMESTEP=332 LAYER=  1 ZONE=  2 ACTIVE CELLS= 4064 NUMBER OF EQUATIONS=    4064
 
 SOLVING FOR HEAD 

 NO OUTPUT CONTROL FOR STRESS PERIOD    1   TIME STEP  333
 SOLVING FOR ZETA FOR LAYER     1 ZONE     2

    1390 UPPER PART EQS.      1391 LOWER PART EQS.    BAND WIDTH + 1 =   58
 STRESS PERIOD=  1 TIMESTEP=333 LAYER=  1 ZONE=  2 ACTIVE CELLS= 2781 NUMBER OF EQUATIONS=    2781
 
 SOLVING FOR HEAD 

 NO OUTPUT CONTROL FOR STRESS PERIOD    1   TIME STEP  334
 SOLVING FOR ZETA FOR LAYER     1 ZONE     2

    1523 UPPER PART EQS.      1526 LOWER PART EQS.    BAND WIDTH + 1 =   62
 STRESS PERIOD=  1 TIMESTEP=334 LAYER=  1 ZONE=  2 ACTIVE CELLS= 3049 NUMBER OF EQUATIONS=    3049
 
 SOLVING FOR HEAD 

 NO OUTPUT CONTROL FOR STRESS PERIOD    1   TIME STEP  335
 SOLVING FOR ZETA FOR LAYER     1 ZONE     2

    1542 UPPER PART EQS.      1560 LOWER PART EQS.    BAND WIDTH + 1 =   67
 STRESS PERIOD=  1 TIMESTEP=335 LAYER=  1 ZONE=  2 ACTIVE CELLS= 3102 NUMBER OF EQUATIONS=    3102
 
 SOLVING FOR HEAD 

 NO OUTPUT CONTROL FOR STRESS PERIOD    1   TIME STEP  336
 SOLVING FOR ZETA FOR LAYER     1 ZONE     2

    1538 UPPER PART EQS.      1484 LOWER PART EQS.    BAND WIDTH + 1 =   67
 STRESS PERIOD=  1 TIMESTEP=336 LAYER=  1 ZONE=  2 ACTIVE CELLS= 3022 NUMBER OF EQUATIONS=    3022
 
 SOLVING FOR HEAD 

 NO OUTPUT CONTROL FOR STRESS PERIOD    1   TIME STEP  337
 SOLVING FOR ZETA FOR LAYER     1 ZONE     2

    1450 UPPER PART EQS.      1539 LOWER PART EQS.    BAND WIDTH + 1 =   95
 STRESS PERIOD=  1 TIMESTEP=337 LAYER=  1 ZONE=  2 ACTIVE CELLS= 2989 NUMBER OF EQUATIONS=    2989
 
 SOLVING FOR HEAD 

 NO OUTPUT CONTROL FOR STRESS PERIOD    1   TIME STEP  338
 SOLVING FOR ZETA FOR LAYER     1 ZONE     2

    1594 UPPER PART EQS.      1497 LOWER PART EQS.    BAND WIDTH + 1 =   95
 STRESS PERIOD=  1 TIMESTEP=338 LAYER=  1 ZONE=  2 ACTIVE CELLS= 3091 NUMBER OF EQUATIONS=    3091
 
 SOLVING FOR HEAD 

 NO OUTPUT CONTROL FOR STRESS PERIOD    1   TIME STEP  339
 SOLVING FOR ZETA FOR LAYER     1 ZONE     2

    1580 UPPER PART EQS.      1665 LOWER PART EQS.    BAND WIDTH + 1 =   95
 STRESS PERIOD=  1 TIMESTEP=339 LAYER=  1 ZONE=  2 ACTIVE CELLS= 3245 NUMBER OF EQUATIONS=    3245
 
 SOLVING FOR HEAD 

 OUTPUT CONTROL FOR STRESS PERIOD    1   TIME STEP  340
    SAVE HEAD FOR ALL LAYERS
    PRINT BUDGET
 SOLVING FOR ZETA FOR LAYER     1 ZONE     2

    1666 UPPER PART EQS.      1590 LOWER PART EQS.    BAND WIDTH + 1 =  102
 STRESS PERIOD=  1 TIMESTEP=340 LAYER=  1 ZONE=  2 ACTIVE CELLS= 3256 NUMBER OF EQUATIONS=    3256
 UBUDSV SAVING "      ZETASRF  1" ON UNIT 55 AT TIME STEP340, STRESS PERIOD    1


                      VOLUMETRIC SWI ZONE BUDGET FOR ENTIRE MODEL
                     AT END OF TIME STEP  340 IN STRESS PERIOD   1
                                      ZONE     1
  -----------------------------------------------------------------------------------

        CUMULATIVE VOLUMES      L**3       RATES FOR THIS TIME STEP      L**3/T
        ------------------                 ------------------------

              IN:                                      IN:
              ---                                      ---
             BOUNDARIES = 74536779776.0000            BOUNDARIES =      594231.3750
          CONSTANT HEAD = 40839712768.0000         CONSTANT HEAD =       24112.0117
            ZONE CHANGE =507967733760.0000           ZONE CHANGE =     2837995.0000
       ZONE CHG TIP/TOE =       7.6875E+12      ZONE CHG TIP/TOE =    51687320.0000
            ZONE MIXING =           0.0000           ZONE MIXING =           0.0000

               TOTAL IN =       8.3109E+12              TOTAL IN =    55143660.0000

             OUT:                                     OUT:
             ----                                     ----
             BOUNDARIES =           0.0000            BOUNDARIES =           0.0000
          CONSTANT HEAD =       3.3384E+12         CONSTANT HEAD =     3048078.0000
            ZONE CHANGE =       8.1992E+12           ZONE CHANGE =    54407808.0000
       ZONE CHG TIP/TOE =  1062352064.0000      ZONE CHG TIP/TOE =         935.6525
            ZONE MIXING =           0.0000           ZONE MIXING =           0.0000

              TOTAL OUT =       1.1539E+13             TOTAL OUT =    57456824.0000

               IN - OUT =      -3.2278E+12              IN - OUT =    -2313164.0000

    PERCENT DISCREPANCY =         -32.52     PERCENT DISCREPANCY =          -4.11



                      VOLUMETRIC SWI ZONE BUDGET FOR ENTIRE MODEL
                     AT END OF TIME STEP  340 IN STRESS PERIOD   1
                                      ZONE     2
  -----------------------------------------------------------------------------------

        CUMULATIVE VOLUMES      L**3       RATES FOR THIS TIME STEP      L**3/T
        ------------------                 ------------------------

              IN:                                      IN:
              ---                                      ---
             BOUNDARIES = 27629656064.0000            BOUNDARIES =      228464.0469
          CONSTANT HEAD =       3.5950E+12         CONSTANT HEAD =     5638754.0000
            ZONE CHANGE =511740280832.0000           ZONE CHANGE =     2720742.2500
       ZONE CHG TIP/TOE =       6.0244E+14      ZONE CHG TIP/TOE =  5533146112.0000
            ZONE MIXING =           0.0000           ZONE MIXING =           0.0000

               TOTAL IN =       6.0657E+14              TOTAL IN =  5541733888.0000

             OUT:                                     OUT:
             ----                                     ----
             BOUNDARIES =           0.0000            BOUNDARIES =           0.0000
          CONSTANT HEAD =399692922880.0000         CONSTANT HEAD =     3437483.0000
            ZONE CHANGE =       6.0294E+14           ZONE CHANGE =  5535983104.0000
       ZONE CHG TIP/TOE =    42417028.0000      ZONE CHG TIP/TOE =         256.4564
            ZONE MIXING =           0.0000           ZONE MIXING =           0.0000

              TOTAL OUT =       6.0334E+14             TOTAL OUT =  5539421184.0000

               IN - OUT =       3.2277E+12              IN - OUT =     2312704.0000

    PERCENT DISCREPANCY =           0.53     PERCENT DISCREPANCY =           0.04


 HEAD WILL BE SAVED ON UNIT   51 AT END OF TIME STEP  340, STRESS PERIOD    1
1
  VOLUMETRIC BUDGET FOR ENTIRE MODEL AT END OF TIME STEP  340, STRESS PERIOD   1
  ------------------------------------------------------------------------------

     CUMULATIVE VOLUMES      L**3       RATES FOR THIS TIME STEP      L**3/T
     ------------------                 ------------------------

           IN:                                      IN:
           ---                                      ---
             STORAGE =           0.0000               STORAGE =           0.0000
       CONSTANT HEAD =       6.0768E+12         CONSTANT HEAD =    14319614.0000
          SWIADDTOCH =       4.5873E+12            SWIADDTOCH =     3703381.2500
            RECHARGE =102166675456.0000              RECHARGE =      822695.3750

            TOTAL IN =       1.0766E+13              TOTAL IN =    18845692.0000

          OUT:                                     OUT:
          ----                                     ----
             STORAGE =           0.0000               STORAGE =           0.0000
       CONSTANT HEAD =       4.7829E+12         CONSTANT HEAD =     4055942.5000
          SWIADDTOCH =       5.9834E+12            SWIADDTOCH =    14789748.0000
            RECHARGE =           0.0000              RECHARGE =           0.0000

           TOTAL OUT =       1.0766E+13             TOTAL OUT =    18845690.0000

            IN - OUT =     6291456.0000              IN - OUT =           2.0000

 PERCENT DISCREPANCY =           0.00     PERCENT DISCREPANCY =           0.00






         TIME SUMMARY AT END OF TIME STEP  340 IN STRESS PERIOD    1
                    SECONDS     MINUTES      HOURS       DAYS        YEARS
                    -----------------------------------------------------------
   TIME STEP LENGTH 3.15576E+07 5.25960E+05  8766.0      365.25      1.0000    
 STRESS PERIOD TIME 1.07296E+10 1.78826E+08 2.98044E+06 1.24185E+05  340.00    
         TOTAL TIME 1.07296E+10 1.78826E+08 2.98044E+06 1.24185E+05  340.00    
1
 
 SOLVING FOR HEAD 

 NO OUTPUT CONTROL FOR STRESS PERIOD    1   TIME STEP  341
 SOLVING FOR ZETA FOR LAYER     1 ZONE     2

    1570 UPPER PART EQS.      1631 LOWER PART EQS.    BAND WIDTH + 1 =   89
 STRESS PERIOD=  1 TIMESTEP=341 LAYER=  1 ZONE=  2 ACTIVE CELLS= 3201 NUMBER OF EQUATIONS=    3201
 
 SOLVING FOR HEAD 

 NO OUTPUT CONTROL FOR STRESS PERIOD    1   TIME STEP  342
 SOLVING FOR ZETA FOR LAYER     1 ZONE     2

    1764 UPPER PART EQS.      1704 LOWER PART EQS.    BAND WIDTH + 1 =   89
 STRESS PERIOD=  1 TIMESTEP=342 LAYER=  1 ZONE=  2 ACTIVE CELLS= 3468 NUMBER OF EQUATIONS=    3468
 
 SOLVING FOR HEAD 

 NO OUTPUT CONTROL FOR STRESS PERIOD    1   TIME STEP  343
 SOLVING FOR ZETA FOR LAYER     1 ZONE     2

    1843 UPPER PART EQS.      1867 LOWER PART EQS.    BAND WIDTH + 1 =   90
 STRESS PERIOD=  1 TIMESTEP=343 LAYER=  1 ZONE=  2 ACTIVE CELLS= 3710 NUMBER OF EQUATIONS=    3710
 
 SOLVING FOR HEAD 

 NO OUTPUT CONTROL FOR STRESS PERIOD    1   TIME STEP  344
 SOLVING FOR ZETA FOR LAYER     1 ZONE     2

    1925 UPPER PART EQS.      1918 LOWER PART EQS.    BAND WIDTH + 1 =   95
 STRESS PERIOD=  1 TIMESTEP=344 LAYER=  1 ZONE=  2 ACTIVE CELLS= 3843 NUMBER OF EQUATIONS=    3843
 
 SOLVING FOR HEAD 

 NO OUTPUT CONTROL FOR STRESS PERIOD    1   TIME STEP  345
 SOLVING FOR ZETA FOR LAYER     1 ZONE     2

    1904 UPPER PART EQS.      1890 LOWER PART EQS.    BAND WIDTH + 1 =  105
 STRESS PERIOD=  1 TIMESTEP=345 LAYER=  1 ZONE=  2 ACTIVE CELLS= 3794 NUMBER OF EQUATIONS=    3794
 
 SOLVING FOR HEAD 

 NO OUTPUT CONTROL FOR STRESS PERIOD    1   TIME STEP  346
 SOLVING FOR ZETA FOR LAYER     1 ZONE     2

    1801 UPPER PART EQS.      1839 LOWER PART EQS.    BAND WIDTH + 1 =  131
 INSUFFICIENT MEMORY FOR DE4 SOLVER:
 MXBW MUST BE AT LEAST  131
 
 SOLVING FOR HEAD 

 NO OUTPUT CONTROL FOR STRESS PERIOD    1   TIME STEP  347
 SOLVING FOR ZETA FOR LAYER     1 ZONE     2

    2107 UPPER PART EQS.      2132 LOWER PART EQS.    BAND WIDTH + 1 =   76
 STRESS PERIOD=  1 TIMESTEP=347 LAYER=  1 ZONE=  2 ACTIVE CELLS= 4239 NUMBER OF EQUATIONS=    4239
 
 SOLVING FOR HEAD 

 NO OUTPUT CONTROL FOR STRESS PERIOD    1   TIME STEP  348
 SOLVING FOR ZETA FOR LAYER     1 ZONE     2

    1639 UPPER PART EQS.      1616 LOWER PART EQS.    BAND WIDTH + 1 =   63
 STRESS PERIOD=  1 TIMESTEP=348 LAYER=  1 ZONE=  2 ACTIVE CELLS= 3255 NUMBER OF EQUATIONS=    3255
 
 SOLVING FOR HEAD 

 NO OUTPUT CONTROL FOR STRESS PERIOD    1   TIME STEP  349
 SOLVING FOR ZETA FOR LAYER     1 ZONE     2

    1775 UPPER PART EQS.      1843 LOWER PART EQS.    BAND WIDTH + 1 =   99
 STRESS PERIOD=  1 TIMESTEP=349 LAYER=  1 ZONE=  2 ACTIVE CELLS= 3618 NUMBER OF EQUATIONS=    3618
 
 SOLVING FOR HEAD 

 NO OUTPUT CONTROL FOR STRESS PERIOD    1   TIME STEP  350
 SOLVING FOR ZETA FOR LAYER     1 ZONE     2

    1954 UPPER PART EQS.      1875 LOWER PART EQS.    BAND WIDTH + 1 =  100
 STRESS PERIOD=  1 TIMESTEP=350 LAYER=  1 ZONE=  2 ACTIVE CELLS= 3829 NUMBER OF EQUATIONS=    3829
 
 SOLVING FOR HEAD 

 NO OUTPUT CONTROL FOR STRESS PERIOD    1   TIME STEP  351
 SOLVING FOR ZETA FOR LAYER     1 ZONE     2

    1944 UPPER PART EQS.      2036 LOWER PART EQS.    BAND WIDTH + 1 =   94
 STRESS PERIOD=  1 TIMESTEP=351 LAYER=  1 ZONE=  2 ACTIVE CELLS= 3980 NUMBER OF EQUATIONS=    3980
 
 SOLVING FOR HEAD 

 NO OUTPUT CONTROL FOR STRESS PERIOD    1   TIME STEP  352
 SOLVING FOR ZETA FOR LAYER     1 ZONE     2

    1912 UPPER PART EQS.      1835 LOWER PART EQS.    BAND WIDTH + 1 =   84
 STRESS PERIOD=  1 TIMESTEP=352 LAYER=  1 ZONE=  2 ACTIVE CELLS= 3747 NUMBER OF EQUATIONS=    3747
 
 SOLVING FOR HEAD 

 NO OUTPUT CONTROL FOR STRESS PERIOD    1   TIME STEP  353
 SOLVING FOR ZETA FOR LAYER     1 ZONE     2

    1878 UPPER PART EQS.      1973 LOWER PART EQS.    BAND WIDTH + 1 =  101
 STRESS PERIOD=  1 TIMESTEP=353 LAYER=  1 ZONE=  2 ACTIVE CELLS= 3851 NUMBER OF EQUATIONS=    3851
 
 SOLVING FOR HEAD 

 NO OUTPUT CONTROL FOR STRESS PERIOD    1   TIME STEP  354
 SOLVING FOR ZETA FOR LAYER     1 ZONE     2

    1774 UPPER PART EQS.      1657 LOWER PART EQS.    BAND WIDTH + 1 =  115
 INSUFFICIENT MEMORY FOR DE4 SOLVER:
 MXBW MUST BE AT LEAST  115
 
 SOLVING FOR HEAD 

 NO OUTPUT CONTROL FOR STRESS PERIOD    1   TIME STEP  355
 SOLVING FOR ZETA FOR LAYER     1 ZONE     2

    2053 UPPER PART EQS.      2042 LOWER PART EQS.    BAND WIDTH + 1 =   78
 STRESS PERIOD=  1 TIMESTEP=355 LAYER=  1 ZONE=  2 ACTIVE CELLS= 4095 NUMBER OF EQUATIONS=    4095
 
 SOLVING FOR HEAD 

 NO OUTPUT CONTROL FOR STRESS PERIOD    1   TIME STEP  356
 SOLVING FOR ZETA FOR LAYER     1 ZONE     2

    1727 UPPER PART EQS.      1716 LOWER PART EQS.    BAND WIDTH + 1 =   64
 STRESS PERIOD=  1 TIMESTEP=356 LAYER=  1 ZONE=  2 ACTIVE CELLS= 3443 NUMBER OF EQUATIONS=    3443
 
 SOLVING FOR HEAD 

 NO OUTPUT CONTROL FOR STRESS PERIOD    1   TIME STEP  357
 SOLVING FOR ZETA FOR LAYER     1 ZONE     2

    1712 UPPER PART EQS.      1732 LOWER PART EQS.    BAND WIDTH + 1 =   67
 STRESS PERIOD=  1 TIMESTEP=357 LAYER=  1 ZONE=  2 ACTIVE CELLS= 3444 NUMBER OF EQUATIONS=    3444
 
 SOLVING FOR HEAD 

 NO OUTPUT CONTROL FOR STRESS PERIOD    1   TIME STEP  358
 SOLVING FOR ZETA FOR LAYER     1 ZONE     2

    1817 UPPER PART EQS.      1796 LOWER PART EQS.    BAND WIDTH + 1 =   80
 STRESS PERIOD=  1 TIMESTEP=358 LAYER=  1 ZONE=  2 ACTIVE CELLS= 3613 NUMBER OF EQUATIONS=    3613
 
 SOLVING FOR HEAD 

 NO OUTPUT CONTROL FOR STRESS PERIOD    1   TIME STEP  359
 SOLVING FOR ZETA FOR LAYER     1 ZONE     2

    1869 UPPER PART EQS.      1902 LOWER PART EQS.    BAND WIDTH + 1 =  104
 STRESS PERIOD=  1 TIMESTEP=359 LAYER=  1 ZONE=  2 ACTIVE CELLS= 3771 NUMBER OF EQUATIONS=    3771
 
 SOLVING FOR HEAD 

 OUTPUT CONTROL FOR STRESS PERIOD    1   TIME STEP  360
    SAVE HEAD FOR ALL LAYERS
    PRINT BUDGET
 SOLVING FOR ZETA FOR LAYER     1 ZONE     2

    1728 UPPER PART EQS.      1693 LOWER PART EQS.    BAND WIDTH + 1 =   97
 STRESS PERIOD=  1 TIMESTEP=360 LAYER=  1 ZONE=  2 ACTIVE CELLS= 3421 NUMBER OF EQUATIONS=    3421
 UBUDSV SAVING "      ZETASRF  1" ON UNIT 55 AT TIME STEP360, STRESS PERIOD    1


                      VOLUMETRIC SWI ZONE BUDGET FOR ENTIRE MODEL
                     AT END OF TIME STEP  360 IN STRESS PERIOD   1
                                      ZONE     1
  -----------------------------------------------------------------------------------

        CUMULATIVE VOLUMES      L**3       RATES FOR THIS TIME STEP      L**3/T
        ------------------                 ------------------------

              IN:                                      IN:
              ---                                      ---
             BOUNDARIES = 79104630784.0000            BOUNDARIES =      606295.7500
          CONSTANT HEAD = 41524617216.0000         CONSTANT HEAD =       19185.9277
            ZONE CHANGE =536683839488.0000           ZONE CHANGE =     4510741.0000
       ZONE CHG TIP/TOE =       8.2028E+12      ZONE CHG TIP/TOE =   120352600.0000
            ZONE MIXING =           0.0000           ZONE MIXING =           0.0000

               TOTAL IN =       8.8601E+12              TOTAL IN =   125488824.0000

             OUT:                                     OUT:
             ----                                     ----
             BOUNDARIES =           0.0000            BOUNDARIES =           0.0000
          CONSTANT HEAD =       3.4050E+12         CONSTANT HEAD =    21994854.0000
            ZONE CHANGE =       8.7471E+12           ZONE CHANGE =   124525552.0000
       ZONE CHG TIP/TOE =  1121612544.0000      ZONE CHG TIP/TOE =        8743.5293
            ZONE MIXING =           0.0000           ZONE MIXING =           0.0000

              TOTAL OUT =       1.2153E+13             TOTAL OUT =   146529136.0000

               IN - OUT =      -3.2932E+12              IN - OUT =   -21040312.0000

    PERCENT DISCREPANCY =         -31.34     PERCENT DISCREPANCY =         -15.47



                      VOLUMETRIC SWI ZONE BUDGET FOR ENTIRE MODEL
                     AT END OF TIME STEP  360 IN STRESS PERIOD   1
                                      ZONE     2
  -----------------------------------------------------------------------------------

        CUMULATIVE VOLUMES      L**3       RATES FOR THIS TIME STEP      L**3/T
        ------------------                 ------------------------

              IN:                                      IN:
              ---                                      ---
             BOUNDARIES = 29071583232.0000            BOUNDARIES =      216399.6250
          CONSTANT HEAD =       3.6787E+12         CONSTANT HEAD =    23581544.0000
            ZONE CHANGE =544356466688.0000           ZONE CHANGE =     4173350.0000
       ZONE CHG TIP/TOE =       6.4554E+14      ZONE CHG TIP/TOE = 10308861952.0000
            ZONE MIXING =           0.0000           ZONE MIXING =           0.0000

               TOTAL IN =       6.4979E+14              TOTAL IN = 10336833536.0000

             OUT:                                     OUT:
             ----                                     ----
             BOUNDARIES =           0.0000            BOUNDARIES =           0.0000
          CONSTANT HEAD =423371309056.0000         CONSTANT HEAD =     2428573.7500
            ZONE CHANGE =       6.4607E+14           ZONE CHANGE = 10313363456.0000
       ZONE CHG TIP/TOE =    44920520.0000      ZONE CHG TIP/TOE =         398.4892
            ZONE MIXING =           0.0000           ZONE MIXING =           0.0000

              TOTAL OUT =       6.4649E+14             TOTAL OUT = 10315792384.0000

               IN - OUT =       3.2932E+12              IN - OUT =    21041152.0000

    PERCENT DISCREPANCY =           0.51     PERCENT DISCREPANCY =           0.20


 HEAD WILL BE SAVED ON UNIT   51 AT END OF TIME STEP  360, STRESS PERIOD    1
1
  VOLUMETRIC BUDGET FOR ENTIRE MODEL AT END OF TIME STEP  360, STRESS PERIOD   1
  ------------------------------------------------------------------------------

     CUMULATIVE VOLUMES      L**3       RATES FOR THIS TIME STEP      L**3/T
     ------------------                 ------------------------

           IN:                                      IN:
           ---                                      ---
             STORAGE =           0.0000               STORAGE =           0.0000
       CONSTANT HEAD =       6.3226E+12         CONSTANT HEAD =    48876564.0000
          SWIADDTOCH =       4.7509E+12            SWIADDTOCH =    65806272.0000
            RECHARGE =108176490496.0000              RECHARGE =      822695.3750

            TOTAL IN =       1.1182E+13              TOTAL IN =   115505528.0000

          OUT:                                     OUT:
          ----                                     ----
             STORAGE =           0.0000               STORAGE =           0.0000
       CONSTANT HEAD =       4.9492E+12         CONSTANT HEAD =    66474000.0000
          SWIADDTOCH =       6.2325E+12            SWIADDTOCH =    49031536.0000
            RECHARGE =           0.0000              RECHARGE =           0.0000

           TOTAL OUT =       1.1182E+13             TOTAL OUT =   115505536.0000

            IN - OUT =     6291456.0000              IN - OUT =          -8.0000

 PERCENT DISCREPANCY =           0.00     PERCENT DISCREPANCY =          -0.00






         TIME SUMMARY AT END OF TIME STEP  360 IN STRESS PERIOD    1
                    SECONDS     MINUTES      HOURS       DAYS        YEARS
                    -----------------------------------------------------------
   TIME STEP LENGTH 3.15576E+07 5.25960E+05  8766.0      365.25      1.0000    
 STRESS PERIOD TIME 1.13607E+10 1.89346E+08 3.15576E+06 1.31490E+05  360.00    
         TOTAL TIME 1.13607E+10 1.89346E+08 3.15576E+06 1.31490E+05  360.00    
1
 
 SOLVING FOR HEAD 

 NO OUTPUT CONTROL FOR STRESS PERIOD    1   TIME STEP  361
 SOLVING FOR ZETA FOR LAYER     1 ZONE     2

    1766 UPPER PART EQS.      1809 LOWER PART EQS.    BAND WIDTH + 1 =   89
 STRESS PERIOD=  1 TIMESTEP=361 LAYER=  1 ZONE=  2 ACTIVE CELLS= 3575 NUMBER OF EQUATIONS=    3575
 
 SOLVING FOR HEAD 

 NO OUTPUT CONTROL FOR STRESS PERIOD    1   TIME STEP  362
 SOLVING FOR ZETA FOR LAYER     1 ZONE     2

    1838 UPPER PART EQS.      1788 LOWER PART EQS.    BAND WIDTH + 1 =   99
 STRESS PERIOD=  1 TIMESTEP=362 LAYER=  1 ZONE=  2 ACTIVE CELLS= 3626 NUMBER OF EQUATIONS=    3626
 
 SOLVING FOR HEAD 

 NO OUTPUT CONTROL FOR STRESS PERIOD    1   TIME STEP  363
 SOLVING FOR ZETA FOR LAYER     1 ZONE     2

    1883 UPPER PART EQS.      1938 LOWER PART EQS.    BAND WIDTH + 1 =  124
 INSUFFICIENT MEMORY FOR DE4 SOLVER:
 MXBW MUST BE AT LEAST  124
 
 SOLVING FOR HEAD 

 NO OUTPUT CONTROL FOR STRESS PERIOD    1   TIME STEP  364
 SOLVING FOR ZETA FOR LAYER     1 ZONE     2

    2253 UPPER PART EQS.      2232 LOWER PART EQS.    BAND WIDTH + 1 =   79
 STRESS PERIOD=  1 TIMESTEP=364 LAYER=  1 ZONE=  2 ACTIVE CELLS= 4485 NUMBER OF EQUATIONS=    4485
 
 SOLVING FOR HEAD 

 NO OUTPUT CONTROL FOR STRESS PERIOD    1   TIME STEP  365
 SOLVING FOR ZETA FOR LAYER     1 ZONE     2

    1759 UPPER PART EQS.      1761 LOWER PART EQS.    BAND WIDTH + 1 =   70
 STRESS PERIOD=  1 TIMESTEP=365 LAYER=  1 ZONE=  2 ACTIVE CELLS= 3520 NUMBER OF EQUATIONS=    3520
 
 SOLVING FOR HEAD 

 NO OUTPUT CONTROL FOR STRESS PERIOD    1   TIME STEP  366
 SOLVING FOR ZETA FOR LAYER     1 ZONE     2

    1869 UPPER PART EQS.      1849 LOWER PART EQS.    BAND WIDTH + 1 =   73
 STRESS PERIOD=  1 TIMESTEP=366 LAYER=  1 ZONE=  2 ACTIVE CELLS= 3718 NUMBER OF EQUATIONS=    3718
 
 SOLVING FOR HEAD 

 NO OUTPUT CONTROL FOR STRESS PERIOD    1   TIME STEP  367
 SOLVING FOR ZETA FOR LAYER     1 ZONE     2

    1846 UPPER PART EQS.      1888 LOWER PART EQS.    BAND WIDTH + 1 =   72
 STRESS PERIOD=  1 TIMESTEP=367 LAYER=  1 ZONE=  2 ACTIVE CELLS= 3734 NUMBER OF EQUATIONS=    3734
 
 SOLVING FOR HEAD 

 NO OUTPUT CONTROL FOR STRESS PERIOD    1   TIME STEP  368
 SOLVING FOR ZETA FOR LAYER     1 ZONE     2

    1750 UPPER PART EQS.      1735 LOWER PART EQS.    BAND WIDTH + 1 =   74
 STRESS PERIOD=  1 TIMESTEP=368 LAYER=  1 ZONE=  2 ACTIVE CELLS= 3485 NUMBER OF EQUATIONS=    3485
 
 SOLVING FOR HEAD 

 NO OUTPUT CONTROL FOR STRESS PERIOD    1   TIME STEP  369
 SOLVING FOR ZETA FOR LAYER     1 ZONE     2

    1821 UPPER PART EQS.      1825 LOWER PART EQS.    BAND WIDTH + 1 =   75
 STRESS PERIOD=  1 TIMESTEP=369 LAYER=  1 ZONE=  2 ACTIVE CELLS= 3646 NUMBER OF EQUATIONS=    3646
 
 SOLVING FOR HEAD 

 NO OUTPUT CONTROL FOR STRESS PERIOD    1   TIME STEP  370
 SOLVING FOR ZETA FOR LAYER     1 ZONE     2

    1858 UPPER PART EQS.      1846 LOWER PART EQS.    BAND WIDTH + 1 =   81
 STRESS PERIOD=  1 TIMESTEP=370 LAYER=  1 ZONE=  2 ACTIVE CELLS= 3704 NUMBER OF EQUATIONS=    3704
 
 SOLVING FOR HEAD 

 NO OUTPUT CONTROL FOR STRESS PERIOD    1   TIME STEP  371
 SOLVING FOR ZETA FOR LAYER     1 ZONE     2

    1855 UPPER PART EQS.      1886 LOWER PART EQS.    BAND WIDTH + 1 =   84
 STRESS PERIOD=  1 TIMESTEP=371 LAYER=  1 ZONE=  2 ACTIVE CELLS= 3741 NUMBER OF EQUATIONS=    3741
 
 SOLVING FOR HEAD 

 NO OUTPUT CONTROL FOR STRESS PERIOD    1   TIME STEP  372
 SOLVING FOR ZETA FOR LAYER     1 ZONE     2

    1690 UPPER PART EQS.      1618 LOWER PART EQS.    BAND WIDTH + 1 =   95
 STRESS PERIOD=  1 TIMESTEP=372 LAYER=  1 ZONE=  2 ACTIVE CELLS= 3308 NUMBER OF EQUATIONS=    3308
 
 SOLVING FOR HEAD 

 NO OUTPUT CONTROL FOR STRESS PERIOD    1   TIME STEP  373
 SOLVING FOR ZETA FOR LAYER     1 ZONE     2

    1562 UPPER PART EQS.      1612 LOWER PART EQS.    BAND WIDTH + 1 =   80
 STRESS PERIOD=  1 TIMESTEP=373 LAYER=  1 ZONE=  2 ACTIVE CELLS= 3174 NUMBER OF EQUATIONS=    3174
 
 SOLVING FOR HEAD 

 NO OUTPUT CONTROL FOR STRESS PERIOD    1   TIME STEP  374
 SOLVING FOR ZETA FOR LAYER     1 ZONE     2

    1683 UPPER PART EQS.      1611 LOWER PART EQS.    BAND WIDTH + 1 =   82
 STRESS PERIOD=  1 TIMESTEP=374 LAYER=  1 ZONE=  2 ACTIVE CELLS= 3294 NUMBER OF EQUATIONS=    3294
 
 SOLVING FOR HEAD 

 NO OUTPUT CONTROL FOR STRESS PERIOD    1   TIME STEP  375
 SOLVING FOR ZETA FOR LAYER     1 ZONE     2

    1642 UPPER PART EQS.      1699 LOWER PART EQS.    BAND WIDTH + 1 =   81
 STRESS PERIOD=  1 TIMESTEP=375 LAYER=  1 ZONE=  2 ACTIVE CELLS= 3341 NUMBER OF EQUATIONS=    3341
 
 SOLVING FOR HEAD 

 NO OUTPUT CONTROL FOR STRESS PERIOD    1   TIME STEP  376
 SOLVING FOR ZETA FOR LAYER     1 ZONE     2

    1706 UPPER PART EQS.      1657 LOWER PART EQS.    BAND WIDTH + 1 =   85
 STRESS PERIOD=  1 TIMESTEP=376 LAYER=  1 ZONE=  2 ACTIVE CELLS= 3363 NUMBER OF EQUATIONS=    3363
 
 SOLVING FOR HEAD 

 NO OUTPUT CONTROL FOR STRESS PERIOD    1   TIME STEP  377
 SOLVING FOR ZETA FOR LAYER     1 ZONE     2

    1779 UPPER PART EQS.      1785 LOWER PART EQS.    BAND WIDTH + 1 =  115
 INSUFFICIENT MEMORY FOR DE4 SOLVER:
 MXBW MUST BE AT LEAST  115
 
 SOLVING FOR HEAD 

 NO OUTPUT CONTROL FOR STRESS PERIOD    1   TIME STEP  378
 SOLVING FOR ZETA FOR LAYER     1 ZONE     2

    2206 UPPER PART EQS.      2179 LOWER PART EQS.    BAND WIDTH + 1 =   75
 STRESS PERIOD=  1 TIMESTEP=378 LAYER=  1 ZONE=  2 ACTIVE CELLS= 4385 NUMBER OF EQUATIONS=    4385
 
 SOLVING FOR HEAD 

 NO OUTPUT CONTROL FOR STRESS PERIOD    1   TIME STEP  379
 SOLVING FOR ZETA FOR LAYER     1 ZONE     2

    1475 UPPER PART EQS.      1472 LOWER PART EQS.    BAND WIDTH + 1 =   70
 STRESS PERIOD=  1 TIMESTEP=379 LAYER=  1 ZONE=  2 ACTIVE CELLS= 2947 NUMBER OF EQUATIONS=    2947
 
 SOLVING FOR HEAD 

 OUTPUT CONTROL FOR STRESS PERIOD    1   TIME STEP  380
    SAVE HEAD FOR ALL LAYERS
    PRINT BUDGET
 SOLVING FOR ZETA FOR LAYER     1 ZONE     2

    1582 UPPER PART EQS.      1604 LOWER PART EQS.    BAND WIDTH + 1 =   73
 STRESS PERIOD=  1 TIMESTEP=380 LAYER=  1 ZONE=  2 ACTIVE CELLS= 3186 NUMBER OF EQUATIONS=    3186
 UBUDSV SAVING "      ZETASRF  1" ON UNIT 55 AT TIME STEP380, STRESS PERIOD    1


                      VOLUMETRIC SWI ZONE BUDGET FOR ENTIRE MODEL
                     AT END OF TIME STEP  380 IN STRESS PERIOD   1
                                      ZONE     1
  -----------------------------------------------------------------------------------

        CUMULATIVE VOLUMES      L**3       RATES FOR THIS TIME STEP      L**3/T
        ------------------                 ------------------------

              IN:                                      IN:
              ---                                      ---
             BOUNDARIES = 83530571776.0000            BOUNDARIES =      605765.6875
          CONSTANT HEAD = 43022811136.0000         CONSTANT HEAD =       67104.2891
            ZONE CHANGE =574085857280.0000           ZONE CHANGE =     2218780.5000
       ZONE CHG TIP/TOE =       8.8105E+12      ZONE CHG TIP/TOE =    20200310.0000
            ZONE MIXING =           0.0000           ZONE MIXING =           0.0000

               TOTAL IN =       9.5111E+12              TOTAL IN =    23091960.0000

             OUT:                                     OUT:
             ----                                     ----
             BOUNDARIES =           0.0000            BOUNDARIES =           0.0000
          CONSTANT HEAD =       3.5834E+12         CONSTANT HEAD =     1229331.7500
            ZONE CHANGE =       9.3891E+12           ZONE CHANGE =    23154216.0000
       ZONE CHG TIP/TOE =  1229686016.0000      ZONE CHG TIP/TOE =        4075.1240
            ZONE MIXING =           0.0000           ZONE MIXING =           0.0000

              TOTAL OUT =       1.2974E+13             TOTAL OUT =    24387624.0000

               IN - OUT =      -3.4627E+12              IN - OUT =    -1295664.0000

    PERCENT DISCREPANCY =         -30.80     PERCENT DISCREPANCY =          -5.46



                      VOLUMETRIC SWI ZONE BUDGET FOR ENTIRE MODEL
                     AT END OF TIME STEP  380 IN STRESS PERIOD   1
                                      ZONE     2
  -----------------------------------------------------------------------------------

        CUMULATIVE VOLUMES      L**3       RATES FOR THIS TIME STEP      L**3/T
        ------------------                 ------------------------

              IN:                                      IN:
              ---                                      ---
             BOUNDARIES = 30655449088.0000            BOUNDARIES =      216929.7344
          CONSTANT HEAD =       3.8721E+12         CONSTANT HEAD =     4063421.0000
            ZONE CHANGE =578713419776.0000           ZONE CHANGE =     2954272.7500
       ZONE CHG TIP/TOE =       6.9889E+14      ZONE CHG TIP/TOE =  1309717888.0000
            ZONE MIXING =           0.0000           ZONE MIXING =           0.0000

               TOTAL IN =       7.0337E+14              TOTAL IN =  1316952448.0000

             OUT:                                     OUT:
             ----                                     ----
             BOUNDARIES =           0.0000            BOUNDARIES =           0.0000
          CONSTANT HEAD =445921361920.0000         CONSTANT HEAD =     3723886.7500
            ZONE CHANGE =       6.9947E+14           ZONE CHANGE =  1311932672.0000
       ZONE CHG TIP/TOE =    47814264.0000      ZONE CHG TIP/TOE =         366.2095
            ZONE MIXING =           0.0000           ZONE MIXING =           0.0000

              TOTAL OUT =       6.9991E+14             TOTAL OUT =  1315656960.0000

               IN - OUT =       3.4628E+12              IN - OUT =     1295488.0000

    PERCENT DISCREPANCY =           0.49     PERCENT DISCREPANCY =           0.10


 HEAD WILL BE SAVED ON UNIT   51 AT END OF TIME STEP  380, STRESS PERIOD    1
1
  VOLUMETRIC BUDGET FOR ENTIRE MODEL AT END OF TIME STEP  380, STRESS PERIOD   1
  ------------------------------------------------------------------------------

     CUMULATIVE VOLUMES      L**3       RATES FOR THIS TIME STEP      L**3/T
     ------------------                 ------------------------

           IN:                                      IN:
           ---                                      ---
             STORAGE =           0.0000               STORAGE =           0.0000
       CONSTANT HEAD =       6.7467E+12         CONSTANT HEAD =    12923038.0000
          SWIADDTOCH =       5.0255E+12            SWIADDTOCH =    78778392.0000
            RECHARGE =114186305536.0000              RECHARGE =      822695.3750

            TOTAL IN =       1.1886E+13              TOTAL IN =    92524128.0000

          OUT:                                     OUT:
          ----                                     ----
             STORAGE =           0.0000               STORAGE =           0.0000
       CONSTANT HEAD =       5.2429E+12         CONSTANT HEAD =    79152392.0000
          SWIADDTOCH =       6.6434E+12            SWIADDTOCH =    13371730.0000
            RECHARGE =           0.0000              RECHARGE =           0.0000

           TOTAL OUT =       1.1886E+13             TOTAL OUT =    92524120.0000

            IN - OUT =     9437184.0000              IN - OUT =           8.0000

 PERCENT DISCREPANCY =           0.00     PERCENT DISCREPANCY =           0.00






         TIME SUMMARY AT END OF TIME STEP  380 IN STRESS PERIOD    1
                    SECONDS     MINUTES      HOURS       DAYS        YEARS
                    -----------------------------------------------------------
   TIME STEP LENGTH 3.15576E+07 5.25960E+05  8766.0      365.25      1.0000    
 STRESS PERIOD TIME 1.19919E+10 1.99865E+08 3.33108E+06 1.38795E+05  380.00    
         TOTAL TIME 1.19919E+10 1.99865E+08 3.33108E+06 1.38795E+05  380.00    
1
 
 SOLVING FOR HEAD 

 NO OUTPUT CONTROL FOR STRESS PERIOD    1   TIME STEP  381
 SOLVING FOR ZETA FOR LAYER     1 ZONE     2

    1685 UPPER PART EQS.      1705 LOWER PART EQS.    BAND WIDTH + 1 =   66
 STRESS PERIOD=  1 TIMESTEP=381 LAYER=  1 ZONE=  2 ACTIVE CELLS= 3390 NUMBER OF EQUATIONS=    3390
 
 SOLVING FOR HEAD 

 NO OUTPUT CONTROL FOR STRESS PERIOD    1   TIME STEP  382
 SOLVING FOR ZETA FOR LAYER     1 ZONE     2

    1685 UPPER PART EQS.      1641 LOWER PART EQS.    BAND WIDTH + 1 =   81
 STRESS PERIOD=  1 TIMESTEP=382 LAYER=  1 ZONE=  2 ACTIVE CELLS= 3326 NUMBER OF EQUATIONS=    3326
 
 SOLVING FOR HEAD 

 NO OUTPUT CONTROL FOR STRESS PERIOD    1   TIME STEP  383
 SOLVING FOR ZETA FOR LAYER     1 ZONE     2

    1606 UPPER PART EQS.      1660 LOWER PART EQS.    BAND WIDTH + 1 =   81
 STRESS PERIOD=  1 TIMESTEP=383 LAYER=  1 ZONE=  2 ACTIVE CELLS= 3266 NUMBER OF EQUATIONS=    3266
 
 SOLVING FOR HEAD 

 NO OUTPUT CONTROL FOR STRESS PERIOD    1   TIME STEP  384
 SOLVING FOR ZETA FOR LAYER     1 ZONE     2

    1728 UPPER PART EQS.      1660 LOWER PART EQS.    BAND WIDTH + 1 =  101
 STRESS PERIOD=  1 TIMESTEP=384 LAYER=  1 ZONE=  2 ACTIVE CELLS= 3388 NUMBER OF EQUATIONS=    3388
 
 SOLVING FOR HEAD 

 NO OUTPUT CONTROL FOR STRESS PERIOD    1   TIME STEP  385
 SOLVING FOR ZETA FOR LAYER     1 ZONE     2

    1608 UPPER PART EQS.      1683 LOWER PART EQS.    BAND WIDTH + 1 =  118
 INSUFFICIENT MEMORY FOR DE4 SOLVER:
 MXBW MUST BE AT LEAST  118
 
 SOLVING FOR HEAD 

 NO OUTPUT CONTROL FOR STRESS PERIOD    1   TIME STEP  386
 SOLVING FOR ZETA FOR LAYER     1 ZONE     2

    1875 UPPER PART EQS.      1848 LOWER PART EQS.    BAND WIDTH + 1 =   72
 STRESS PERIOD=  1 TIMESTEP=386 LAYER=  1 ZONE=  2 ACTIVE CELLS= 3723 NUMBER OF EQUATIONS=    3723
 
 SOLVING FOR HEAD 

 NO OUTPUT CONTROL FOR STRESS PERIOD    1   TIME STEP  387
 SOLVING FOR ZETA FOR LAYER     1 ZONE     2

    1484 UPPER PART EQS.      1512 LOWER PART EQS.    BAND WIDTH + 1 =   65
 STRESS PERIOD=  1 TIMESTEP=387 LAYER=  1 ZONE=  2 ACTIVE CELLS= 2996 NUMBER OF EQUATIONS=    2996
 
 SOLVING FOR HEAD 

 NO OUTPUT CONTROL FOR STRESS PERIOD    1   TIME STEP  388
 SOLVING FOR ZETA FOR LAYER     1 ZONE     2

    1516 UPPER PART EQS.      1495 LOWER PART EQS.    BAND WIDTH + 1 =   63
 STRESS PERIOD=  1 TIMESTEP=388 LAYER=  1 ZONE=  2 ACTIVE CELLS= 3011 NUMBER OF EQUATIONS=    3011
 
 SOLVING FOR HEAD 

 NO OUTPUT CONTROL FOR STRESS PERIOD    1   TIME STEP  389
 SOLVING FOR ZETA FOR LAYER     1 ZONE     2

    1597 UPPER PART EQS.      1631 LOWER PART EQS.    BAND WIDTH + 1 =   76
 STRESS PERIOD=  1 TIMESTEP=389 LAYER=  1 ZONE=  2 ACTIVE CELLS= 3228 NUMBER OF EQUATIONS=    3228
 
 SOLVING FOR HEAD 

 NO OUTPUT CONTROL FOR STRESS PERIOD    1   TIME STEP  390
 SOLVING FOR ZETA FOR LAYER     1 ZONE     2

    1636 UPPER PART EQS.      1612 LOWER PART EQS.    BAND WIDTH + 1 =   73
 STRESS PERIOD=  1 TIMESTEP=390 LAYER=  1 ZONE=  2 ACTIVE CELLS= 3248 NUMBER OF EQUATIONS=    3248
 
 SOLVING FOR HEAD 

 NO OUTPUT CONTROL FOR STRESS PERIOD    1   TIME STEP  391
 SOLVING FOR ZETA FOR LAYER     1 ZONE     2

    1764 UPPER PART EQS.      1762 LOWER PART EQS.    BAND WIDTH + 1 =   76
 STRESS PERIOD=  1 TIMESTEP=391 LAYER=  1 ZONE=  2 ACTIVE CELLS= 3526 NUMBER OF EQUATIONS=    3526
 
 SOLVING FOR HEAD 

 NO OUTPUT CONTROL FOR STRESS PERIOD    1   TIME STEP  392
 SOLVING FOR ZETA FOR LAYER     1 ZONE     2

    1697 UPPER PART EQS.      1722 LOWER PART EQS.    BAND WIDTH + 1 =   81
 STRESS PERIOD=  1 TIMESTEP=392 LAYER=  1 ZONE=  2 ACTIVE CELLS= 3419 NUMBER OF EQUATIONS=    3419
 
 SOLVING FOR HEAD 

 NO OUTPUT CONTROL FOR STRESS PERIOD    1   TIME STEP  393
 SOLVING FOR ZETA FOR LAYER     1 ZONE     2

    1722 UPPER PART EQS.      1660 LOWER PART EQS.    BAND WIDTH + 1 =   89
 STRESS PERIOD=  1 TIMESTEP=393 LAYER=  1 ZONE=  2 ACTIVE CELLS= 3382 NUMBER OF EQUATIONS=    3382
 
 SOLVING FOR HEAD 

 NO OUTPUT CONTROL FOR STRESS PERIOD    1   TIME STEP  394
 SOLVING FOR ZETA FOR LAYER     1 ZONE     2

    1551 UPPER PART EQS.      1617 LOWER PART EQS.    BAND WIDTH + 1 =   94
 STRESS PERIOD=  1 TIMESTEP=394 LAYER=  1 ZONE=  2 ACTIVE CELLS= 3168 NUMBER OF EQUATIONS=    3168
 
 SOLVING FOR HEAD 

 NO OUTPUT CONTROL FOR STRESS PERIOD    1   TIME STEP  395
 SOLVING FOR ZETA FOR LAYER     1 ZONE     2

    1609 UPPER PART EQS.      1543 LOWER PART EQS.    BAND WIDTH + 1 =   88
 STRESS PERIOD=  1 TIMESTEP=395 LAYER=  1 ZONE=  2 ACTIVE CELLS= 3152 NUMBER OF EQUATIONS=    3152
 
 SOLVING FOR HEAD 

 NO OUTPUT CONTROL FOR STRESS PERIOD    1   TIME STEP  396
 SOLVING FOR ZETA FOR LAYER     1 ZONE     2

    1560 UPPER PART EQS.      1625 LOWER PART EQS.    BAND WIDTH + 1 =   77
 STRESS PERIOD=  1 TIMESTEP=396 LAYER=  1 ZONE=  2 ACTIVE CELLS= 3185 NUMBER OF EQUATIONS=    3185
 
 SOLVING FOR HEAD 

 NO OUTPUT CONTROL FOR STRESS PERIOD    1   TIME STEP  397
 SOLVING FOR ZETA FOR LAYER     1 ZONE     2

    1655 UPPER PART EQS.      1592 LOWER PART EQS.    BAND WIDTH + 1 =   92
 STRESS PERIOD=  1 TIMESTEP=397 LAYER=  1 ZONE=  2 ACTIVE CELLS= 3247 NUMBER OF EQUATIONS=    3247
 
 SOLVING FOR HEAD 

 NO OUTPUT CONTROL FOR STRESS PERIOD    1   TIME STEP  398
 SOLVING FOR ZETA FOR LAYER     1 ZONE     2

    1614 UPPER PART EQS.      1664 LOWER PART EQS.    BAND WIDTH + 1 =  101
 STRESS PERIOD=  1 TIMESTEP=398 LAYER=  1 ZONE=  2 ACTIVE CELLS= 3278 NUMBER OF EQUATIONS=    3278
 
 SOLVING FOR HEAD 

 NO OUTPUT CONTROL FOR STRESS PERIOD    1   TIME STEP  399
 SOLVING FOR ZETA FOR LAYER     1 ZONE     2

    1762 UPPER PART EQS.      1723 LOWER PART EQS.    BAND WIDTH + 1 =  103
 STRESS PERIOD=  1 TIMESTEP=399 LAYER=  1 ZONE=  2 ACTIVE CELLS= 3485 NUMBER OF EQUATIONS=    3485
 
 SOLVING FOR HEAD 

 OUTPUT CONTROL FOR STRESS PERIOD    1   TIME STEP  400
    SAVE HEAD FOR ALL LAYERS
    PRINT BUDGET
 SOLVING FOR ZETA FOR LAYER     1 ZONE     2

    1857 UPPER PART EQS.      1906 LOWER PART EQS.    BAND WIDTH + 1 =  129
 INSUFFICIENT MEMORY FOR DE4 SOLVER:
 MXBW MUST BE AT LEAST  129
 UBUDSV SAVING "      ZETASRF  1" ON UNIT 55 AT TIME STEP400, STRESS PERIOD    1


                      VOLUMETRIC SWI ZONE BUDGET FOR ENTIRE MODEL
                     AT END OF TIME STEP  400 IN STRESS PERIOD   1
                                      ZONE     1
  -----------------------------------------------------------------------------------

        CUMULATIVE VOLUMES      L**3       RATES FOR THIS TIME STEP      L**3/T
        ------------------                 ------------------------

              IN:                                      IN:
              ---                                      ---
             BOUNDARIES = 87871201280.0000            BOUNDARIES =      630503.9375
          CONSTANT HEAD = 51515174912.0000         CONSTANT HEAD =      130989.2344
            ZONE CHANGE =602829291520.0000           ZONE CHANGE =           0.0000
       ZONE CHG TIP/TOE =       9.3608E+12      ZONE CHG TIP/TOE =         533.8540
            ZONE MIXING =           0.0000           ZONE MIXING =           0.0000

               TOTAL IN =       1.0103E+13              TOTAL IN =      762027.0625

             OUT:                                     OUT:
             ----                                     ----
             BOUNDARIES =           0.0000            BOUNDARIES =           0.0000
          CONSTANT HEAD =       3.7899E+12         CONSTANT HEAD =    24265178.0000
            ZONE CHANGE =       9.9702E+12           ZONE CHANGE =           0.0000
       ZONE CHG TIP/TOE =  1318044672.0000      ZONE CHG TIP/TOE =         550.7828
            ZONE MIXING =           0.0000           ZONE MIXING =           0.0000

              TOTAL OUT =       1.3761E+13             TOTAL OUT =    24265728.0000

               IN - OUT =      -3.6584E+12              IN - OUT =   -23503700.0000

    PERCENT DISCREPANCY =         -30.66     PERCENT DISCREPANCY =        -187.82



                      VOLUMETRIC SWI ZONE BUDGET FOR ENTIRE MODEL
                     AT END OF TIME STEP  400 IN STRESS PERIOD   1
                                      ZONE     2
  -----------------------------------------------------------------------------------

        CUMULATIVE VOLUMES      L**3       RATES FOR THIS TIME STEP      L**3/T
        ------------------                 ------------------------

              IN:                                      IN:
              ---                                      ---
             BOUNDARIES = 32324601856.0000            BOUNDARIES =      192191.4688
          CONSTANT HEAD =       4.0842E+12         CONSTANT HEAD =    25132662.0000
            ZONE CHANGE =609424703488.0000           ZONE CHANGE =           0.0000
       ZONE CHG TIP/TOE =       7.4026E+14      ZONE CHG TIP/TOE =         550.7828
            ZONE MIXING =           0.0000           ZONE MIXING =           0.0000

               TOTAL IN =       7.4499E+14              TOTAL IN =    25325404.0000

             OUT:                                     OUT:
             ----                                     ----
             BOUNDARIES =           0.0000            BOUNDARIES =           0.0000
          CONSTANT HEAD =465945395200.0000         CONSTANT HEAD =     1821174.3750
            ZONE CHANGE =       7.4087E+14           ZONE CHANGE =           0.0000
       ZONE CHG TIP/TOE =    50463464.0000      ZONE CHG TIP/TOE =         533.8540
            ZONE MIXING =           0.0000           ZONE MIXING =           0.0000

              TOTAL OUT =       7.4133E+14             TOTAL OUT =     1821708.2500

               IN - OUT =       3.6585E+12              IN - OUT =    23503696.0000

    PERCENT DISCREPANCY =           0.49     PERCENT DISCREPANCY =         173.16


 HEAD WILL BE SAVED ON UNIT   51 AT END OF TIME STEP  400, STRESS PERIOD    1
1
  VOLUMETRIC BUDGET FOR ENTIRE MODEL AT END OF TIME STEP  400, STRESS PERIOD   1
  ------------------------------------------------------------------------------

     CUMULATIVE VOLUMES      L**3       RATES FOR THIS TIME STEP      L**3/T
     ------------------                 ------------------------

           IN:                                      IN:
           ---                                      ---
             STORAGE =           0.0000               STORAGE =           0.0000
       CONSTANT HEAD =       7.1543E+12         CONSTANT HEAD =   129343248.0000
          SWIADDTOCH =       5.3083E+12            SWIADDTOCH =     5146198.5000
            RECHARGE =120196120576.0000              RECHARGE =      822695.3750

            TOTAL IN =       1.2583E+13              TOTAL IN =   135312128.0000

          OUT:                                     OUT:
          ----                                     ----
             STORAGE =           0.0000               STORAGE =           0.0000
       CONSTANT HEAD =       5.5321E+12         CONSTANT HEAD =     5416098.0000
          SWIADDTOCH =       7.0506E+12            SWIADDTOCH =   129896048.0000
            RECHARGE =           0.0000              RECHARGE =           0.0000

           TOTAL OUT =       1.2583E+13             TOTAL OUT =   135312144.0000

            IN - OUT =     7340032.0000              IN - OUT =         -16.0000

 PERCENT DISCREPANCY =           0.00     PERCENT DISCREPANCY =          -0.00






         TIME SUMMARY AT END OF TIME STEP  400 IN STRESS PERIOD    1
                    SECONDS     MINUTES      HOURS       DAYS        YEARS
                    -----------------------------------------------------------
   TIME STEP LENGTH 3.15576E+07 5.25960E+05  8766.0      365.25      1.0000    
 STRESS PERIOD TIME 1.26230E+10 2.10384E+08 3.50640E+06 1.46100E+05  400.00    
         TOTAL TIME 1.26230E+10 2.10384E+08 3.50640E+06 1.46100E+05  400.00    
1

 HEAD AND DRAWDOWN OBSERVATIONS
 OBSERVATION       OBSERVED           SIMULATED
   NAME              VALUE              VALUE             DIFFERENCE
 --------------------------------------------------------------------
 Obs_0           5.5000000000        2.8455281258        2.6544718742    
 Obs_1          0.20000000298       0.33201399446      -0.13201399148    
 Obs_2          0.40000000596       0.30462872982       9.53712761402E-02
 Obs_3          0.30000001192       0.17571751773       0.12428249419    
 Obs_4          0.60000002384       0.19894956052       0.40105044842    
 Obs_5           2.2999999523       0.53731477261        1.7626851797    
 Obs_6           2.5999999046       0.47717264295        2.1228272915    
 Obs_7           3.5000000000        1.2216178179        2.2783823013    
 Obs_8           1.2000000477       0.45472955704       0.74527049065    
 Obs_9           3.5999999046        2.4031207561        1.1968791485    
 Obs_10          1.5000000000       0.52502113581       0.97497886419    
 Obs_11          1.8999999762        1.6088428497       0.29115712643    
 Obs_12          1.2999999523        2.9781978130       -1.6781978607    
 Obs_13         0.89999997616        1.5988085270      -0.69880855083    
 Obs_14          44.700000763        4.3425793648        40.357421875    
 Obs_15          2.5999999046        1.5642493963        1.0357505083    
 Obs_16          1.7000000477        1.5178997517       0.18210029602    
 Obs_17          3.0000000000        3.8120117188      -0.81201171875    
 Obs_18          1.7999999523        1.5020598173       0.29794013500    
 Obs_19          5.9000000954        6.8437256813      -0.94372558594    
 Obs_20          19.200000763        3.8257167339        15.374283791    
 Obs_21          8.0000000000        8.0857515335      -8.57515335083E-02
 Obs_22          8.1999998093        4.5414495468        3.6585502625    
 Obs_23          5.7500000000        3.8987510204        1.8512489796    
 Obs_24          34.200000763        8.0666675568        26.133333206    
 Obs_25          3.2000000477        3.6059486866      -0.40594863892    
 Obs_26          16.500000000        8.9491243362        7.5508756638    
 Obs_27          25.399999619        5.4760479927        19.923952103    
 Obs_28          1.7999999523        3.3996405602       -1.5996406078    
 Obs_29          8.8000001907        3.3949952126        5.4050049782    
 Obs_30         0.85000002384        2.6693482399       -1.8193482161    
 Obs_31         0.89999997616        2.5574061871       -1.6574062109    
 Obs_32         0.60000002384       0.10000000149       0.50000000000    
 Obs_33          20.299999237        5.7664175034        14.533581734    
 Obs_34          1.7999999523        2.6628329754      -0.86283302307    
 Obs_35          1.9333000183        2.4635863304      -0.53028631210    
 Obs_36         0.30000001192        1.4784991741       -1.1784992218    
 Obs_37         0.50000000000       0.19467984140       0.30532014370    
 Obs_38          1.0000000000        1.0573012829      -5.73012828827E-02
 Obs_39          62.500000000        9.7714948654        52.728504181    
 Obs_40          15.800000191        3.0040724277        12.795928001    
 Obs_41          1.2000000477        5.3644332886       -4.1644334793    
 Obs_42          7.3000001907        6.1080970764        1.1919031143    
 Obs_43          7.3000001907        6.8732008934       0.42679929733    
 Obs_44          9.8000001907        7.4898743629        2.3101258278    
 Obs_45          16.466699600        8.2168445587        8.2498550415    
 Obs_46          1.2000000477        3.1385829449       -1.9385828972    
 Obs_47          3.0000000000        2.8485479355       0.15145206451    
 Obs_48          6.6500000954        4.5124611855        2.1375389099    
 Obs_49          2.7000000477        4.0513410568       -1.3513410091    
 Obs_50          6.0999999046        1.4825938940        4.6174058914    
 Obs_51         0.10000000149       0.10000000149        0.0000000000    
 Obs_52          8.1000003815        3.6782798767        4.4217205048    
 Obs_53          8.1999998093        3.6476707458        4.5523290634    
 Obs_54          4.3000001907        4.7098665237      -0.40986633301    
 Obs_55          5.5666999817        4.3921751976        1.1745247841    
 Obs_56          5.5000000000        5.0648999214       0.43510007858    
 Obs_57          7.3000001907        2.8388154507        4.4611845016    
 Obs_58          6.0000000000        1.9901212454        4.0098786354    
 Obs_59          2.7000000477       0.49687996507        2.2031199932    
 Obs_60          5.3000001907       0.50245493650        4.7975454330    
 Obs_61          3.0999999046        1.0075484514        2.0924515724    
 Obs_62          3.0000000000       0.62896668911        2.3710331917    
 Obs_63          5.6999998093       0.45248803496        5.2475118637    

 HEAD/DRAWDOWN SUM OF SQUARED DIFFERENCE:    6.51122E+03

 Run end date and time (yyyy/mm/dd hh:mm:ss): 2019/08/01 16:17:21
 Elapsed run time:  9.971 Seconds

