                                  MODFLOW-2005     
      U.S. GEOLOGICAL SURVEY MODULAR FINITE-DIFFERENCE GROUND-WATER FLOW MODEL
                            VERSION 1.12.00 2/3/2017

 LIST FILE: modelface.list
                         UNIT    2

 OPENING modelface.dis
 FILE TYPE:DIS   UNIT   11   STATUS:OLD    
 FORMAT:FORMATTED              ACCESS:SEQUENTIAL          

 OPENING modelface.bas
 FILE TYPE:BAS6   UNIT   13   STATUS:OLD    
 FORMAT:FORMATTED              ACCESS:SEQUENTIAL          

 OPENING modelface.lpf
 FILE TYPE:LPF   UNIT   15   STATUS:OLD    
 FORMAT:FORMATTED              ACCESS:SEQUENTIAL          

 OPENING modelface.rch
 FILE TYPE:RCH   UNIT   19   STATUS:OLD    
 FORMAT:FORMATTED              ACCESS:SEQUENTIAL          

 OPENING modelface.oc
 FILE TYPE:OC   UNIT   14   STATUS:OLD    
 FORMAT:FORMATTED              ACCESS:SEQUENTIAL          

 OPENING modelface.pcg
 FILE TYPE:PCG   UNIT   27   STATUS:OLD    
 FORMAT:FORMATTED              ACCESS:SEQUENTIAL          

 OPENING modelface.swi2
 FILE TYPE:SWI2   UNIT   29   STATUS:OLD    
 FORMAT:FORMATTED              ACCESS:SEQUENTIAL          

 OPENING modelface.hob
 FILE TYPE:HOB   UNIT   39   STATUS:OLD    
 FORMAT:FORMATTED              ACCESS:SEQUENTIAL          

 OPENING modelface.hds
 FILE TYPE:DATA(BINARY)   UNIT   51   STATUS:REPLACE
 FORMAT:BINARY                 ACCESS:SEQUENTIAL          

 OPENING modelface.zta
 FILE TYPE:DATA(BINARY)   UNIT   55   STATUS:REPLACE
 FORMAT:BINARY                 ACCESS:SEQUENTIAL          

 OPENING modelface.hob.out
 FILE TYPE:DATA   UNIT    7   STATUS:UNKNOWN
 FORMAT:FORMATTED              ACCESS:SEQUENTIAL          

 BAS -- BASIC PACKAGE, VERSION 7, 5/2/2005 INPUT READ FROM UNIT   13
 
 MODFLOW was compiled using mixed precision
 Precision of REAL variables:           6
 Precision of DOUBLE PRECISION variables:          15

 DISCRETIZATION INPUT DATA READ FROM UNIT   11
 # DIS package for  MODFLOW-2005, generated by Flopy.
    1 LAYERS       100 ROWS       200 COLUMNS
    1 STRESS PERIOD(S) IN SIMULATION
 MODEL TIME UNIT IS DAYS
 MODEL LENGTH UNIT IS METERS
  Confining bed flag for each layer:
   0

                     DELR =   169.000    

                     DELC =   165.000    



           TOP ELEVATION OF LAYER 1
 READING ON UNIT   11 WITH FORMAT: (200E15.6)          

   MODEL LAYER BOTTOM EL. =  -1250.00     FOR LAYER   1


 STRESS PERIOD     LENGTH       TIME STEPS     MULTIPLIER FOR DELT    SS FLAG
 ----------------------------------------------------------------------------
        1         146100.0        400                    1.000         SS

 STEADY-STATE SIMULATION



 
 # BAS6 package for  MODFLOW-2005, generated by Flopy.                           
 THE FREE FORMAT OPTION HAS BEEN SELECTED



                     BOUNDARY ARRAY FOR LAYER   1
 READING ON UNIT   13 WITH FORMAT: (200I10)            

 AQUIFER HEAD WILL BE SET TO  -999.99     AT ALL NO-FLOW NODES (IBOUND=0).



                       INITIAL HEAD FOR LAYER   1
 READING ON UNIT   13 WITH FORMAT: (200E15.6)          
 # OC package for  MODFLOW-2005, generated by Flopy.

 OUTPUT CONTROL IS SPECIFIED ONLY AT TIME STEPS FOR WHICH OUTPUT IS DESIRED
 COMPACT CELL-BY-CELL BUDGET FILES WILL BE WRITTEN
 AUXILIARY DATA WILL BE SAVED IN CELL-BY-CELL BUDGET FILES
 HEAD PRINT FORMAT CODE IS   0    DRAWDOWN PRINT FORMAT CODE IS   0
 HEADS WILL BE SAVED ON UNIT   51    DRAWDOWNS WILL BE SAVED ON UNIT    0

 LPF -- LAYER-PROPERTY FLOW PACKAGE, VERSION 7, 5/2/2005
         INPUT READ FROM UNIT   15
 # LPF package for  MODFLOW-2005, generated by Flopy.
 HEAD AT CELLS THAT CONVERT TO DRY= -1.00000E+30
 No named parameters

   LAYER FLAGS:
 LAYER       LAYTYP        LAYAVG         CHANI        LAYVKA        LAYWET
 ---------------------------------------------------------------------------
    1             0             0     1.000E+00             0             0

   INTERPRETATION OF LAYER FLAGS:
                        INTERBLOCK     HORIZONTAL    DATA IN
         LAYER TYPE   TRANSMISSIVITY   ANISOTROPY   ARRAY VKA   WETTABILITY
 LAYER      (LAYTYP)      (LAYAVG)       (CHANI)      (LAYVKA)      (LAYWET)
 ---------------------------------------------------------------------------
    1      CONFINED      HARMONIC     1.000E+00    VERTICAL K  NON-WETTABLE

 WETTING CAPABILITY IS NOT ACTIVE IN ANY LAYER



              HYD. COND. ALONG ROWS FOR LAYER   1
 READING ON UNIT   15 WITH FORMAT: (200E15.6)          

      VERTICAL HYD. COND. =   10.0000     FOR LAYER   1

 RCH -- RECHARGE PACKAGE, VERSION 7, 5/2/2005 INPUT READ FROM UNIT   19
 # RCH package for  MODFLOW-2005, generated by Flopy.
 No named parameters
 OPTION 3 -- RECHARGE TO HIGHEST ACTIVE NODE IN EACH VERTICAL COLUMN


     0 Recharge parameters

 PCG -- CONJUGATE-GRADIENT SOLUTION PACKAGE, VERSION 7, 5/2/2005
 # PCG package for  MODFLOW-2005, generated by Flopy.
 MAXIMUM OF    100 CALLS OF SOLUTION ROUTINE
 MAXIMUM OF     50 INTERNAL ITERATIONS PER CALL TO SOLUTION ROUTINE
 MATRIX PRECONDITIONING TYPE :    1



                                    SOLUTION BY THE CONJUGATE-GRADIENT METHOD
                                   -------------------------------------------
                    MAXIMUM NUMBER OF CALLS TO PCG ROUTINE =      100
                        MAXIMUM ITERATIONS PER CALL TO PCG =       50
                               MATRIX PRECONDITIONING TYPE =        1
        RELAXATION FACTOR (ONLY USED WITH PRECOND. TYPE 1) =    0.10000E+01
 PARAMETER OF POLYNOMIAL PRECOND. = 2 (2) OR IS CALCULATED :        0
                         HEAD CHANGE CRITERION FOR CLOSURE =    0.10000E-05
                     RESIDUAL CHANGE CRITERION FOR CLOSURE =    0.30000E-02
            PCG HEAD AND RESIDUAL CHANGE PRINTOUT INTERVAL =      999
     PRINTING FROM SOLVER IS LIMITED(1) OR SUPPRESSED (>1) =        3
                            STEADY-STATE DAMPING PARAMETER =    0.10000E+01
                               TRANSIENT DAMPING PARAMETER =    0.10000E+01


 SWI2 -- SWI PACKAGE, VERSION 2.0.0, 07/22/2013
 --------------------------------------------------
 SWI2 INPUT READ FROM UNIT 29


 # SWI2 package for  MODFLOW-2005, generated by Flopy.
 # Dataset 1


 SWI2 DATASET 1
 ----------------------------------------------------
 NUMBER OF SURFACES (NSRF):                         1
 TOTAL NUMBER OF ZONES:                             2
 DENSITY DISTRIBUTION OPTION (ISTRAT):              1
   VARIABLE DENSITY FLOW -- ISTRAT = 0
   STRATIFIED FLOW       -- ISTRAT = 1
 NUMBER OF SWI OBSERVATIONS (NOBS):                 0
 ZETA OUTPUT FILE UNIT NUMBER (ISWIZT):            55
 BUDGET OUTPUT FILE UNIT NUMBER (ISWICB):           0
 OBSERVATION OUTPUT FILE UNIT NUMBER (ISWIOBS):     0
 ----------------------------------------------------
 # Dataset 2a


 SWI2 DATASET 2A
 ----------------------------------------------------
 SOLVER (NSOLVER):                                  1
   SOLVER =                      DIRECT SOLVER (DE4)
 SOLVER PRINTOUT INTERVAL (IPRSOL):               999
 SOLVER OUTPUT FLAG (MUTSOL):                       3
   0 = PRINTING EVERY ITERATION
   1 = LIMITED (TOTAL NUMBER OF ITERATIONS)
   2 = NO PRINTING
   3 = ONLY IF CONVERGENCE FAILS
 ----------------------------------------------------
 # Dataset 3a


 SWI2 DATASET 3A
 ----------------------------------------------------
 MAXIMUM TOE SURFACE SLOPE (TOESLOPE):      0.500E-02
 MAXIMUM TIP SURFACE SLOPE (TIPSLOPE):      0.500E-02
 EXCESS SURFACE SLOPE FRACTION (ALPHA):     0.100    
 MINIMUM ZONE THICKNESS FRACTION (BETA):    0.100    
 ----------------------------------------------------



                             NUZONE
 READING ON UNIT   29 WITH FORMAT: (2E15.6)            



                   ZETA SURFACE  1  FOR LAYER   1
 READING ON UNIT   29 WITH FORMAT: (200E15.6)          

                      SSZ =  0.200000     FOR LAYER   1



                            IZONENR FOR LAYER   1
 READING ON UNIT   29 WITH FORMAT: (200I10)            

 OBS2BAS7 -- HEAD OBSERVATIONS, VERSION 2.0, 2/28/2006
 INPUT READ FROM UNIT  39
 # HOB package for  MODFLOW-2005, generated by Flopy.

 NUMBER OF HEADS....................................:   64
   NUMBER OF MULTILAYER HEADS.......................:    0
   MAXIMUM NUMBER OF LAYERS FOR MULTILAYER HEADS....:    0
 HEAD OBSERVATIONS WILL BE SAVED ON UNIT............:    7
 SIMULATED EQUIVALENT HEAD AT DRY CELLS WILL BE:   -999.000    

 OBSERVED HEAD DATA -- TIME OFFSETS ARE MULTIPLIED BY:   1.0000    

                    REFER.
       OBSERVATION  STRESS    TIME
  OBS#    NAME      PERIOD   OFFSET    OBSERVATION
     1 Obs_0            1    0.000       5.500    
 Observation within a steady-state time step has been moved to the end of the time step.
     2 Obs_1            1    0.000      0.2000    
 Observation within a steady-state time step has been moved to the end of the time step.
     3 Obs_2            1    0.000      0.4000    
 Observation within a steady-state time step has been moved to the end of the time step.
     4 Obs_3            1    0.000      0.3000    
 Observation within a steady-state time step has been moved to the end of the time step.
     5 Obs_4            1    0.000      0.6000    
 Observation within a steady-state time step has been moved to the end of the time step.
     6 Obs_5            1    0.000       2.300    
 Observation within a steady-state time step has been moved to the end of the time step.
     7 Obs_6            1    0.000       2.600    
 Observation within a steady-state time step has been moved to the end of the time step.
     8 Obs_7            1    0.000       3.500    
 Observation within a steady-state time step has been moved to the end of the time step.
     9 Obs_8            1    0.000       1.200    
 Observation within a steady-state time step has been moved to the end of the time step.
    10 Obs_9            1    0.000       3.600    
 Observation within a steady-state time step has been moved to the end of the time step.
    11 Obs_10           1    0.000       1.500    
 Observation within a steady-state time step has been moved to the end of the time step.
    12 Obs_11           1    0.000       1.900    
 Observation within a steady-state time step has been moved to the end of the time step.
    13 Obs_12           1    0.000       1.300    
 Observation within a steady-state time step has been moved to the end of the time step.
    14 Obs_13           1    0.000      0.9000    
 Observation within a steady-state time step has been moved to the end of the time step.
    15 Obs_14           1    0.000       44.70    
 Observation within a steady-state time step has been moved to the end of the time step.
    16 Obs_15           1    0.000       2.600    
 Observation within a steady-state time step has been moved to the end of the time step.
    17 Obs_16           1    0.000       1.700    
 Observation within a steady-state time step has been moved to the end of the time step.
    18 Obs_17           1    0.000       3.000    
 Observation within a steady-state time step has been moved to the end of the time step.
    19 Obs_18           1    0.000       1.800    
 Observation within a steady-state time step has been moved to the end of the time step.
    20 Obs_19           1    0.000       5.900    
 Observation within a steady-state time step has been moved to the end of the time step.
    21 Obs_20           1    0.000       19.20    
 Observation within a steady-state time step has been moved to the end of the time step.
    22 Obs_21           1    0.000       8.000    
 Observation within a steady-state time step has been moved to the end of the time step.
    23 Obs_22           1    0.000       8.200    
 Observation within a steady-state time step has been moved to the end of the time step.
    24 Obs_23           1    0.000       5.750    
 Observation within a steady-state time step has been moved to the end of the time step.
    25 Obs_24           1    0.000       34.20    
 Observation within a steady-state time step has been moved to the end of the time step.
    26 Obs_25           1    0.000       3.200    
 Observation within a steady-state time step has been moved to the end of the time step.
    27 Obs_26           1    0.000       16.50    
 Observation within a steady-state time step has been moved to the end of the time step.
    28 Obs_27           1    0.000       25.40    
 Observation within a steady-state time step has been moved to the end of the time step.
    29 Obs_28           1    0.000       1.800    
 Observation within a steady-state time step has been moved to the end of the time step.
    30 Obs_29           1    0.000       8.800    
 Observation within a steady-state time step has been moved to the end of the time step.
    31 Obs_30           1    0.000      0.8500    
 Observation within a steady-state time step has been moved to the end of the time step.
    32 Obs_31           1    0.000      0.9000    
 Observation within a steady-state time step has been moved to the end of the time step.
    33 Obs_32           1    0.000      0.6000    
 Observation within a steady-state time step has been moved to the end of the time step.
    34 Obs_33           1    0.000       20.30    
 Observation within a steady-state time step has been moved to the end of the time step.
    35 Obs_34           1    0.000       1.800    
 Observation within a steady-state time step has been moved to the end of the time step.
    36 Obs_35           1    0.000       1.933    
 Observation within a steady-state time step has been moved to the end of the time step.
    37 Obs_36           1    0.000      0.3000    
 Observation within a steady-state time step has been moved to the end of the time step.
    38 Obs_37           1    0.000      0.5000    
 Observation within a steady-state time step has been moved to the end of the time step.
    39 Obs_38           1    0.000       1.000    
 Observation within a steady-state time step has been moved to the end of the time step.
    40 Obs_39           1    0.000       62.50    
 Observation within a steady-state time step has been moved to the end of the time step.
    41 Obs_40           1    0.000       15.80    
 Observation within a steady-state time step has been moved to the end of the time step.
    42 Obs_41           1    0.000       1.200    
 Observation within a steady-state time step has been moved to the end of the time step.
    43 Obs_42           1    0.000       7.300    
 Observation within a steady-state time step has been moved to the end of the time step.
    44 Obs_43           1    0.000       7.300    
 Observation within a steady-state time step has been moved to the end of the time step.
    45 Obs_44           1    0.000       9.800    
 Observation within a steady-state time step has been moved to the end of the time step.
    46 Obs_45           1    0.000       16.47    
 Observation within a steady-state time step has been moved to the end of the time step.
    47 Obs_46           1    0.000       1.200    
 Observation within a steady-state time step has been moved to the end of the time step.
    48 Obs_47           1    0.000       3.000    
 Observation within a steady-state time step has been moved to the end of the time step.
    49 Obs_48           1    0.000       6.650    
 Observation within a steady-state time step has been moved to the end of the time step.
    50 Obs_49           1    0.000       2.700    
 Observation within a steady-state time step has been moved to the end of the time step.
    51 Obs_50           1    0.000       6.100    
 Observation within a steady-state time step has been moved to the end of the time step.
    52 Obs_51           1    0.000      0.1000    
 Observation within a steady-state time step has been moved to the end of the time step.
    53 Obs_52           1    0.000       8.100    
 Observation within a steady-state time step has been moved to the end of the time step.
    54 Obs_53           1    0.000       8.200    
 Observation within a steady-state time step has been moved to the end of the time step.
    55 Obs_54           1    0.000       4.300    
 Observation within a steady-state time step has been moved to the end of the time step.
    56 Obs_55           1    0.000       5.567    
 Observation within a steady-state time step has been moved to the end of the time step.
    57 Obs_56           1    0.000       5.500    
 Observation within a steady-state time step has been moved to the end of the time step.
    58 Obs_57           1    0.000       7.300    
 Observation within a steady-state time step has been moved to the end of the time step.
    59 Obs_58           1    0.000       6.000    
 Observation within a steady-state time step has been moved to the end of the time step.
    60 Obs_59           1    0.000       2.700    
 Observation within a steady-state time step has been moved to the end of the time step.
    61 Obs_60           1    0.000       5.300    
 Observation within a steady-state time step has been moved to the end of the time step.
    62 Obs_61           1    0.000       3.100    
 Observation within a steady-state time step has been moved to the end of the time step.
    63 Obs_62           1    0.000       3.000    
 Observation within a steady-state time step has been moved to the end of the time step.
    64 Obs_63           1    0.000       5.700    
 Observation within a steady-state time step has been moved to the end of the time step.

                                                     HEAD CHANGE
                                                      REFERENCE
        OBSERVATION                   ROW     COL    OBSERVATION
  OBS#     NAME       LAY  ROW  COL  OFFSET  OFFSET   (IF > 0)
     1  Obs_0           1   55   22   0.000   0.000        0
     2  Obs_1           1   78   50   0.000   0.000        0
     3  Obs_2           1   81   52   0.000   0.000        0
     4  Obs_3           1   86   52   0.000   0.000        0
     5  Obs_4           1   85   53   0.000   0.000        0
     6  Obs_5           1   71   55   0.000   0.000        0
     7  Obs_6           1   74   55   0.000   0.000        0
     8  Obs_7           1   70   56   0.000   0.000        0
     9  Obs_8           1   77   57   0.000   0.000        0
    10  Obs_9           1   70   59   0.000   0.000        0
    11  Obs_10          1   76   60   0.000   0.000        0
    12  Obs_11          1   79   69   0.000   0.000        0
    13  Obs_12          1   72   71   0.000   0.000        0
    14  Obs_13          1   79   71   0.000   0.000        0
    15  Obs_14          1   64   72   0.000   0.000        0
    16  Obs_15          1   79   72   0.000   0.000        0
    17  Obs_16          1   79   73   0.000   0.000        0
    18  Obs_17          1   63   75   0.000   0.000        0
    19  Obs_18          1   78   75   0.000   0.000        0
    20  Obs_19          1   56   77   0.000   0.000        0
    21  Obs_20          1   60   77   0.000   0.000        0
    22  Obs_21          1   54   78   0.000   0.000        0
    23  Obs_22          1   58   78   0.000   0.000        0
    24  Obs_23          1   59   78   0.000   0.000        0
    25  Obs_24          1   54   79   0.000   0.000        0
    26  Obs_25          1   60   79   0.000   0.000        0
    27  Obs_26          1   52   80   0.000   0.000        0
    28  Obs_27          1   57   80   0.000   0.000        0
    29  Obs_28          1   60   80   0.000   0.000        0
    30  Obs_29          1   59   81   0.000   0.000        0
    31  Obs_30          1   64   81   0.000   0.000        0
    32  Obs_31          1   65   81   0.000   0.000        0
    33  Obs_32          1   84   81   0.000   0.000        0
    34  Obs_33          1   56   82   0.000   0.000        0
    35  Obs_34          1   62   82   0.000   0.000        0
    36  Obs_35          1   64   82   0.000   0.000        0
    37  Obs_36          1   68   85   0.000   0.000        0
    38  Obs_37          1   76   88   0.000   0.000        0
    39  Obs_38          1   63   89   0.000   0.000        0
    40  Obs_39          1   36   96   0.000   0.000        0
    41  Obs_40          1   51   97   0.000   0.000        0
    42  Obs_41          1   29   98   0.000   0.000        0
    43  Obs_42          1   30   98   0.000   0.000        0
    44  Obs_43          1   31   98   0.000   0.000        0
    45  Obs_44          1   32   99   0.000   0.000        0
    46  Obs_45          1   33   99   0.000   0.000        0
    47  Obs_46          1   27  100   0.000   0.000        0
    48  Obs_47          1   29  101   0.000   0.000        0
    49  Obs_48          1   34  107   0.000   0.000        0
    50  Obs_49          1   42  110   0.000   0.000        0
    51  Obs_50          1   41  112   0.000   0.000        0
    52  Obs_51          1   34  114   0.000   0.000        0
    53  Obs_52          1   17  122   0.000   0.000        0
    54  Obs_53          1   17  123   0.000   0.000        0
    55  Obs_54          1   26  127   0.000   0.000        0
    56  Obs_55          1   27  127   0.000   0.000        0
    57  Obs_56          1   27  128   0.000   0.000        0
    58  Obs_57          1   36  133   0.000   0.000        0
    59  Obs_58          1   37  133   0.000   0.000        0
    60  Obs_59          1   19  169   0.000   0.000        0
    61  Obs_60          1   30  174   0.000   0.000        0
    62  Obs_61          1   16  186   0.000   0.000        0
    63  Obs_62          1   15  187   0.000   0.000        0
    64  Obs_63          1   24  188   0.000   0.000        0
1
                            STRESS PERIOD NO.    1, LENGTH =   146100.0    
                            -----------------------------------------------

                              NUMBER OF TIME STEPS =   400

                               MULTIPLIER FOR DELT =     1.000

                            INITIAL TIME STEP SIZE =   365.2500    



                           RECHARGE
 READING ON UNIT   19 WITH FORMAT: (200E15.6)          
 
 SOLVING FOR HEAD 

 NO OUTPUT CONTROL FOR STRESS PERIOD    1   TIME STEP    1
 SOLVING FOR ZETA FOR LAYER     1 ZONE     2

    2487 UPPER PART EQS.      2489 LOWER PART EQS.    BAND WIDTH + 1 =   77
 STRESS PERIOD=  1 TIMESTEP=  1 LAYER=  1 ZONE=  2 ACTIVE CELLS= 4976 NUMBER OF EQUATIONS=    4976
 
 SOLVING FOR HEAD 

 NO OUTPUT CONTROL FOR STRESS PERIOD    1   TIME STEP    2
 SOLVING FOR ZETA FOR LAYER     1 ZONE     2

    2737 UPPER PART EQS.      2739 LOWER PART EQS.    BAND WIDTH + 1 =   79
 STRESS PERIOD=  1 TIMESTEP=  2 LAYER=  1 ZONE=  2 ACTIVE CELLS= 5476 NUMBER OF EQUATIONS=    5476
 
 SOLVING FOR HEAD 

 NO OUTPUT CONTROL FOR STRESS PERIOD    1   TIME STEP    3
 SOLVING FOR ZETA FOR LAYER     1 ZONE     2

    2648 UPPER PART EQS.      2650 LOWER PART EQS.    BAND WIDTH + 1 =   79
 STRESS PERIOD=  1 TIMESTEP=  3 LAYER=  1 ZONE=  2 ACTIVE CELLS= 5298 NUMBER OF EQUATIONS=    5298
 
 SOLVING FOR HEAD 

 NO OUTPUT CONTROL FOR STRESS PERIOD    1   TIME STEP    4
 SOLVING FOR ZETA FOR LAYER     1 ZONE     2

    2882 UPPER PART EQS.      2878 LOWER PART EQS.    BAND WIDTH + 1 =   83
 STRESS PERIOD=  1 TIMESTEP=  4 LAYER=  1 ZONE=  2 ACTIVE CELLS= 5760 NUMBER OF EQUATIONS=    5760
 
 SOLVING FOR HEAD 

 NO OUTPUT CONTROL FOR STRESS PERIOD    1   TIME STEP    5
 SOLVING FOR ZETA FOR LAYER     1 ZONE     2

    2834 UPPER PART EQS.      2822 LOWER PART EQS.    BAND WIDTH + 1 =   82
 STRESS PERIOD=  1 TIMESTEP=  5 LAYER=  1 ZONE=  2 ACTIVE CELLS= 5656 NUMBER OF EQUATIONS=    5656
 
 SOLVING FOR HEAD 

 NO OUTPUT CONTROL FOR STRESS PERIOD    1   TIME STEP    6
 SOLVING FOR ZETA FOR LAYER     1 ZONE     2

    3040 UPPER PART EQS.      3048 LOWER PART EQS.    BAND WIDTH + 1 =   86
 STRESS PERIOD=  1 TIMESTEP=  6 LAYER=  1 ZONE=  2 ACTIVE CELLS= 6088 NUMBER OF EQUATIONS=    6088
 
 SOLVING FOR HEAD 

 NO OUTPUT CONTROL FOR STRESS PERIOD    1   TIME STEP    7
 SOLVING FOR ZETA FOR LAYER     1 ZONE     2

    3049 UPPER PART EQS.      3024 LOWER PART EQS.    BAND WIDTH + 1 =   86
 STRESS PERIOD=  1 TIMESTEP=  7 LAYER=  1 ZONE=  2 ACTIVE CELLS= 6073 NUMBER OF EQUATIONS=    6073
 
 SOLVING FOR HEAD 

 NO OUTPUT CONTROL FOR STRESS PERIOD    1   TIME STEP    8
 SOLVING FOR ZETA FOR LAYER     1 ZONE     2

    3188 UPPER PART EQS.      3204 LOWER PART EQS.    BAND WIDTH + 1 =   93
 STRESS PERIOD=  1 TIMESTEP=  8 LAYER=  1 ZONE=  2 ACTIVE CELLS= 6392 NUMBER OF EQUATIONS=    6392
 
 SOLVING FOR HEAD 

 NO OUTPUT CONTROL FOR STRESS PERIOD    1   TIME STEP    9
 SOLVING FOR ZETA FOR LAYER     1 ZONE     2

    3134 UPPER PART EQS.      3126 LOWER PART EQS.    BAND WIDTH + 1 =   97
 STRESS PERIOD=  1 TIMESTEP=  9 LAYER=  1 ZONE=  2 ACTIVE CELLS= 6260 NUMBER OF EQUATIONS=    6260
 
 SOLVING FOR HEAD 

 NO OUTPUT CONTROL FOR STRESS PERIOD    1   TIME STEP   10
 SOLVING FOR ZETA FOR LAYER     1 ZONE     2

    3315 UPPER PART EQS.      3336 LOWER PART EQS.    BAND WIDTH + 1 =   92
 STRESS PERIOD=  1 TIMESTEP= 10 LAYER=  1 ZONE=  2 ACTIVE CELLS= 6651 NUMBER OF EQUATIONS=    6651
 
 SOLVING FOR HEAD 

 NO OUTPUT CONTROL FOR STRESS PERIOD    1   TIME STEP   11
 SOLVING FOR ZETA FOR LAYER     1 ZONE     2

    3271 UPPER PART EQS.      3273 LOWER PART EQS.    BAND WIDTH + 1 =   94
 STRESS PERIOD=  1 TIMESTEP= 11 LAYER=  1 ZONE=  2 ACTIVE CELLS= 6544 NUMBER OF EQUATIONS=    6544
 
 SOLVING FOR HEAD 

 NO OUTPUT CONTROL FOR STRESS PERIOD    1   TIME STEP   12
 SOLVING FOR ZETA FOR LAYER     1 ZONE     2

    3424 UPPER PART EQS.      3433 LOWER PART EQS.    BAND WIDTH + 1 =   98
 STRESS PERIOD=  1 TIMESTEP= 12 LAYER=  1 ZONE=  2 ACTIVE CELLS= 6857 NUMBER OF EQUATIONS=    6857
 
 SOLVING FOR HEAD 

 NO OUTPUT CONTROL FOR STRESS PERIOD    1   TIME STEP   13
 SOLVING FOR ZETA FOR LAYER     1 ZONE     2

    3370 UPPER PART EQS.      3381 LOWER PART EQS.    BAND WIDTH + 1 =   93
 STRESS PERIOD=  1 TIMESTEP= 13 LAYER=  1 ZONE=  2 ACTIVE CELLS= 6751 NUMBER OF EQUATIONS=    6751
 
 SOLVING FOR HEAD 

 NO OUTPUT CONTROL FOR STRESS PERIOD    1   TIME STEP   14
 SOLVING FOR ZETA FOR LAYER     1 ZONE     2

    3543 UPPER PART EQS.      3542 LOWER PART EQS.    BAND WIDTH + 1 =   90
 STRESS PERIOD=  1 TIMESTEP= 14 LAYER=  1 ZONE=  2 ACTIVE CELLS= 7085 NUMBER OF EQUATIONS=    7085
 
 SOLVING FOR HEAD 

 NO OUTPUT CONTROL FOR STRESS PERIOD    1   TIME STEP   15
 SOLVING FOR ZETA FOR LAYER     1 ZONE     2

    3498 UPPER PART EQS.      3485 LOWER PART EQS.    BAND WIDTH + 1 =   94
 STRESS PERIOD=  1 TIMESTEP= 15 LAYER=  1 ZONE=  2 ACTIVE CELLS= 6983 NUMBER OF EQUATIONS=    6983
 
 SOLVING FOR HEAD 

 NO OUTPUT CONTROL FOR STRESS PERIOD    1   TIME STEP   16
 SOLVING FOR ZETA FOR LAYER     1 ZONE     2

    3692 UPPER PART EQS.      3691 LOWER PART EQS.    BAND WIDTH + 1 =   95
 STRESS PERIOD=  1 TIMESTEP= 16 LAYER=  1 ZONE=  2 ACTIVE CELLS= 7383 NUMBER OF EQUATIONS=    7383
 
 SOLVING FOR HEAD 

 NO OUTPUT CONTROL FOR STRESS PERIOD    1   TIME STEP   17
 SOLVING FOR ZETA FOR LAYER     1 ZONE     2

    3629 UPPER PART EQS.      3635 LOWER PART EQS.    BAND WIDTH + 1 =  100
 STRESS PERIOD=  1 TIMESTEP= 17 LAYER=  1 ZONE=  2 ACTIVE CELLS= 7264 NUMBER OF EQUATIONS=    7264
 
 SOLVING FOR HEAD 

 NO OUTPUT CONTROL FOR STRESS PERIOD    1   TIME STEP   18
 SOLVING FOR ZETA FOR LAYER     1 ZONE     2

    3859 UPPER PART EQS.      3854 LOWER PART EQS.    BAND WIDTH + 1 =   99
 STRESS PERIOD=  1 TIMESTEP= 18 LAYER=  1 ZONE=  2 ACTIVE CELLS= 7713 NUMBER OF EQUATIONS=    7713
 
 SOLVING FOR HEAD 

 NO OUTPUT CONTROL FOR STRESS PERIOD    1   TIME STEP   19
 SOLVING FOR ZETA FOR LAYER     1 ZONE     2

    3783 UPPER PART EQS.      3789 LOWER PART EQS.    BAND WIDTH + 1 =   98
 STRESS PERIOD=  1 TIMESTEP= 19 LAYER=  1 ZONE=  2 ACTIVE CELLS= 7572 NUMBER OF EQUATIONS=    7572
 
 SOLVING FOR HEAD 

 OUTPUT CONTROL FOR STRESS PERIOD    1   TIME STEP   20
    SAVE HEAD FOR ALL LAYERS
    PRINT BUDGET
 SOLVING FOR ZETA FOR LAYER     1 ZONE     2

    4013 UPPER PART EQS.      3994 LOWER PART EQS.    BAND WIDTH + 1 =   97
 STRESS PERIOD=  1 TIMESTEP= 20 LAYER=  1 ZONE=  2 ACTIVE CELLS= 8007 NUMBER OF EQUATIONS=    8007
 UBUDSV SAVING "      ZETASRF  1" ON UNIT 55 AT TIME STEP 20, STRESS PERIOD    1


                      VOLUMETRIC SWI ZONE BUDGET FOR ENTIRE MODEL
                     AT END OF TIME STEP   20 IN STRESS PERIOD   1
                                      ZONE     1
  -----------------------------------------------------------------------------------

        CUMULATIVE VOLUMES      L**3       RATES FOR THIS TIME STEP      L**3/T
        ------------------                 ------------------------

              IN:                                      IN:
              ---                                      ---
             BOUNDARIES =  5990287360.0000            BOUNDARIES =      821553.8125
          CONSTANT HEAD =           0.0000         CONSTANT HEAD =           0.0000
            ZONE CHANGE =   405488608.0000           ZONE CHANGE =       88188.9453
       ZONE CHG TIP/TOE =     2955503.7500      ZONE CHG TIP/TOE =         353.1252
            ZONE MIXING =           0.0000           ZONE MIXING =           0.0000

               TOTAL IN =  6398731264.0000              TOTAL IN =      910095.8750

             OUT:                                     OUT:
             ----                                     ----
             BOUNDARIES =           0.0000            BOUNDARIES =           0.0000
          CONSTANT HEAD =  3140321280.0000         CONSTANT HEAD =      695124.6250
            ZONE CHANGE =  5572630016.0000           ZONE CHANGE =      641743.1875
       ZONE CHG TIP/TOE =     2078867.6250      ZONE CHG TIP/TOE =         262.1719
            ZONE MIXING =           0.0000           ZONE MIXING =           0.0000

              TOTAL OUT =  8715030528.0000             TOTAL OUT =     1337129.8750

               IN - OUT = -2316299264.0000              IN - OUT =     -427034.0000

    PERCENT DISCREPANCY =         -30.65     PERCENT DISCREPANCY =         -38.01



                      VOLUMETRIC SWI ZONE BUDGET FOR ENTIRE MODEL
                     AT END OF TIME STEP   20 IN STRESS PERIOD   1
                                      ZONE     2
  -----------------------------------------------------------------------------------

        CUMULATIVE VOLUMES      L**3       RATES FOR THIS TIME STEP      L**3/T
        ------------------                 ------------------------

              IN:                                      IN:
              ---                                      ---
             BOUNDARIES =    19502488.0000            BOUNDARIES =        1141.6171
          CONSTANT HEAD =    20326030.0000         CONSTANT HEAD =        2768.6675
            ZONE CHANGE =  5572630016.0000           ZONE CHANGE =      641743.1875
       ZONE CHG TIP/TOE =   625767168.0000      ZONE CHG TIP/TOE =      121911.9766
            ZONE MIXING =           0.0000           ZONE MIXING =           0.0000

               TOTAL IN =  6238225408.0000              TOTAL IN =      767565.5000

             OUT:                                     OUT:
             ----                                     ----
             BOUNDARIES =           0.0000            BOUNDARIES =           0.0000
          CONSTANT HEAD =  2889795072.0000         CONSTANT HEAD =      130339.5000
            ZONE CHANGE =  1029176960.0000           ZONE CHANGE =      209838.7500
       ZONE CHG TIP/TOE =     2955503.7500      ZONE CHG TIP/TOE =         353.1252
            ZONE MIXING =           0.0000           ZONE MIXING =           0.0000

              TOTAL OUT =  3921927424.0000             TOTAL OUT =      340531.3750

               IN - OUT =  2316297984.0000              IN - OUT =      427034.1250

    PERCENT DISCREPANCY =          45.60     PERCENT DISCREPANCY =          77.08


 HEAD WILL BE SAVED ON UNIT   51 AT END OF TIME STEP   20, STRESS PERIOD    1
1
  VOLUMETRIC BUDGET FOR ENTIRE MODEL AT END OF TIME STEP   20, STRESS PERIOD   1
  ------------------------------------------------------------------------------

     CUMULATIVE VOLUMES      L**3       RATES FOR THIS TIME STEP      L**3/T
     ------------------                 ------------------------

           IN:                                      IN:
           ---                                      ---
             STORAGE =           0.0000               STORAGE =           0.0000
       CONSTANT HEAD =   592798784.0000         CONSTANT HEAD =       84660.8203
          SWIADDTOCH =  5217695232.0000            SWIADDTOCH =     1618890.3750
            RECHARGE =  6009790464.0000              RECHARGE =      822695.3750

            TOTAL IN = 11820283904.0000              TOTAL IN =     2526246.5000

          OUT:                                     OUT:
          ----                                     ----
             STORAGE =           0.0000               STORAGE =           0.0000
       CONSTANT HEAD = 10916686848.0000         CONSTANT HEAD =     2477416.7500
          SWIADDTOCH =   903596544.0000            SWIADDTOCH =       48829.8672
            RECHARGE =           0.0000              RECHARGE =           0.0000

           TOTAL OUT = 11820283904.0000             TOTAL OUT =     2526246.5000

            IN - OUT =           0.0000              IN - OUT =           0.0000

 PERCENT DISCREPANCY =           0.00     PERCENT DISCREPANCY =           0.00






         TIME SUMMARY AT END OF TIME STEP   20 IN STRESS PERIOD    1
                    SECONDS     MINUTES      HOURS       DAYS        YEARS
                    -----------------------------------------------------------
   TIME STEP LENGTH 3.15576E+07 5.25960E+05  8766.0      365.25      1.0000    
 STRESS PERIOD TIME 6.31152E+08 1.05192E+07 1.75320E+05  7305.0      20.000    
         TOTAL TIME 6.31152E+08 1.05192E+07 1.75320E+05  7305.0      20.000    
1
 
 SOLVING FOR HEAD 

 NO OUTPUT CONTROL FOR STRESS PERIOD    1   TIME STEP   21
 SOLVING FOR ZETA FOR LAYER     1 ZONE     2

    3935 UPPER PART EQS.      3941 LOWER PART EQS.    BAND WIDTH + 1 =   97
 STRESS PERIOD=  1 TIMESTEP= 21 LAYER=  1 ZONE=  2 ACTIVE CELLS= 7876 NUMBER OF EQUATIONS=    7876
 
 SOLVING FOR HEAD 

 NO OUTPUT CONTROL FOR STRESS PERIOD    1   TIME STEP   22
 SOLVING FOR ZETA FOR LAYER     1 ZONE     2

    4159 UPPER PART EQS.      4145 LOWER PART EQS.    BAND WIDTH + 1 =   95
 STRESS PERIOD=  1 TIMESTEP= 22 LAYER=  1 ZONE=  2 ACTIVE CELLS= 8304 NUMBER OF EQUATIONS=    8304
 
 SOLVING FOR HEAD 

 NO OUTPUT CONTROL FOR STRESS PERIOD    1   TIME STEP   23
 SOLVING FOR ZETA FOR LAYER     1 ZONE     2

    4071 UPPER PART EQS.      4088 LOWER PART EQS.    BAND WIDTH + 1 =   98
 STRESS PERIOD=  1 TIMESTEP= 23 LAYER=  1 ZONE=  2 ACTIVE CELLS= 8159 NUMBER OF EQUATIONS=    8159
 
 SOLVING FOR HEAD 

 NO OUTPUT CONTROL FOR STRESS PERIOD    1   TIME STEP   24
 SOLVING FOR ZETA FOR LAYER     1 ZONE     2

    4301 UPPER PART EQS.      4285 LOWER PART EQS.    BAND WIDTH + 1 =   96
 STRESS PERIOD=  1 TIMESTEP= 24 LAYER=  1 ZONE=  2 ACTIVE CELLS= 8586 NUMBER OF EQUATIONS=    8586
 
 SOLVING FOR HEAD 

 NO OUTPUT CONTROL FOR STRESS PERIOD    1   TIME STEP   25
 SOLVING FOR ZETA FOR LAYER     1 ZONE     2

    4234 UPPER PART EQS.      4264 LOWER PART EQS.    BAND WIDTH + 1 =   98
 STRESS PERIOD=  1 TIMESTEP= 25 LAYER=  1 ZONE=  2 ACTIVE CELLS= 8498 NUMBER OF EQUATIONS=    8498
 
 SOLVING FOR HEAD 

 NO OUTPUT CONTROL FOR STRESS PERIOD    1   TIME STEP   26
 SOLVING FOR ZETA FOR LAYER     1 ZONE     2

    4460 UPPER PART EQS.      4437 LOWER PART EQS.    BAND WIDTH + 1 =  101
 STRESS PERIOD=  1 TIMESTEP= 26 LAYER=  1 ZONE=  2 ACTIVE CELLS= 8897 NUMBER OF EQUATIONS=    8897
 
 SOLVING FOR HEAD 

 NO OUTPUT CONTROL FOR STRESS PERIOD    1   TIME STEP   27
 SOLVING FOR ZETA FOR LAYER     1 ZONE     2

    4397 UPPER PART EQS.      4400 LOWER PART EQS.    BAND WIDTH + 1 =  102
 STRESS PERIOD=  1 TIMESTEP= 27 LAYER=  1 ZONE=  2 ACTIVE CELLS= 8797 NUMBER OF EQUATIONS=    8797
 
 SOLVING FOR HEAD 

 NO OUTPUT CONTROL FOR STRESS PERIOD    1   TIME STEP   28
 SOLVING FOR ZETA FOR LAYER     1 ZONE     2

    4607 UPPER PART EQS.      4570 LOWER PART EQS.    BAND WIDTH + 1 =  107
 INSUFFICIENT MEMORY FOR DE4 SOLVER:
 MXBW MUST BE AT LEAST  107
 
 SOLVING FOR HEAD 

 NO OUTPUT CONTROL FOR STRESS PERIOD    1   TIME STEP   29
 SOLVING FOR ZETA FOR LAYER     1 ZONE     2

    4666 UPPER PART EQS.      4677 LOWER PART EQS.    BAND WIDTH + 1 =   98
 STRESS PERIOD=  1 TIMESTEP= 29 LAYER=  1 ZONE=  2 ACTIVE CELLS= 9343 NUMBER OF EQUATIONS=    9343
 
 SOLVING FOR HEAD 

 NO OUTPUT CONTROL FOR STRESS PERIOD    1   TIME STEP   30
 SOLVING FOR ZETA FOR LAYER     1 ZONE     2

    4461 UPPER PART EQS.      4424 LOWER PART EQS.    BAND WIDTH + 1 =  101
 STRESS PERIOD=  1 TIMESTEP= 30 LAYER=  1 ZONE=  2 ACTIVE CELLS= 8885 NUMBER OF EQUATIONS=    8885
 
 SOLVING FOR HEAD 

 NO OUTPUT CONTROL FOR STRESS PERIOD    1   TIME STEP   31
 SOLVING FOR ZETA FOR LAYER     1 ZONE     2

    4746 UPPER PART EQS.      4728 LOWER PART EQS.    BAND WIDTH + 1 =   96
 STRESS PERIOD=  1 TIMESTEP= 31 LAYER=  1 ZONE=  2 ACTIVE CELLS= 9474 NUMBER OF EQUATIONS=    9474
 
 SOLVING FOR HEAD 

 NO OUTPUT CONTROL FOR STRESS PERIOD    1   TIME STEP   32
 SOLVING FOR ZETA FOR LAYER     1 ZONE     2

    4603 UPPER PART EQS.      4594 LOWER PART EQS.    BAND WIDTH + 1 =  106
 INSUFFICIENT MEMORY FOR DE4 SOLVER:
 MXBW MUST BE AT LEAST  106
 
 SOLVING FOR HEAD 

 NO OUTPUT CONTROL FOR STRESS PERIOD    1   TIME STEP   33
 SOLVING FOR ZETA FOR LAYER     1 ZONE     2

    4818 UPPER PART EQS.      4799 LOWER PART EQS.    BAND WIDTH + 1 =  108
 INSUFFICIENT MEMORY FOR DE4 SOLVER:
 MXBW MUST BE AT LEAST  108
 
 SOLVING FOR HEAD 

 NO OUTPUT CONTROL FOR STRESS PERIOD    1   TIME STEP   34
 SOLVING FOR ZETA FOR LAYER     1 ZONE     2

    4875 UPPER PART EQS.      4854 LOWER PART EQS.    BAND WIDTH + 1 =  112
 INSUFFICIENT MEMORY FOR DE4 SOLVER:
 MXBW MUST BE AT LEAST  112
 
 SOLVING FOR HEAD 

 NO OUTPUT CONTROL FOR STRESS PERIOD    1   TIME STEP   35
 SOLVING FOR ZETA FOR LAYER     1 ZONE     2

    4889 UPPER PART EQS.      4902 LOWER PART EQS.    BAND WIDTH + 1 =  102
 STRESS PERIOD=  1 TIMESTEP= 35 LAYER=  1 ZONE=  2 ACTIVE CELLS= 9791 NUMBER OF EQUATIONS=    9791
 
 SOLVING FOR HEAD 

 NO OUTPUT CONTROL FOR STRESS PERIOD    1   TIME STEP   36
 SOLVING FOR ZETA FOR LAYER     1 ZONE     2

    4669 UPPER PART EQS.      4609 LOWER PART EQS.    BAND WIDTH + 1 =  102
 STRESS PERIOD=  1 TIMESTEP= 36 LAYER=  1 ZONE=  2 ACTIVE CELLS= 9278 NUMBER OF EQUATIONS=    9278
 
 SOLVING FOR HEAD 

 NO OUTPUT CONTROL FOR STRESS PERIOD    1   TIME STEP   37
 SOLVING FOR ZETA FOR LAYER     1 ZONE     2

    4953 UPPER PART EQS.      4976 LOWER PART EQS.    BAND WIDTH + 1 =   99
 STRESS PERIOD=  1 TIMESTEP= 37 LAYER=  1 ZONE=  2 ACTIVE CELLS= 9929 NUMBER OF EQUATIONS=    9929
 
 SOLVING FOR HEAD 

 NO OUTPUT CONTROL FOR STRESS PERIOD    1   TIME STEP   38
 SOLVING FOR ZETA FOR LAYER     1 ZONE     2

    4894 UPPER PART EQS.      4834 LOWER PART EQS.    BAND WIDTH + 1 =  100
 STRESS PERIOD=  1 TIMESTEP= 38 LAYER=  1 ZONE=  2 ACTIVE CELLS= 9728 NUMBER OF EQUATIONS=    9728
 
 SOLVING FOR HEAD 

 NO OUTPUT CONTROL FOR STRESS PERIOD    1   TIME STEP   39
 SOLVING FOR ZETA FOR LAYER     1 ZONE     2

    5062 UPPER PART EQS.      5093 LOWER PART EQS.    BAND WIDTH + 1 =  105
 STRESS PERIOD=  1 TIMESTEP= 39 LAYER=  1 ZONE=  2 ACTIVE CELLS=10155 NUMBER OF EQUATIONS=   10155
 
 SOLVING FOR HEAD 

 OUTPUT CONTROL FOR STRESS PERIOD    1   TIME STEP   40
    SAVE HEAD FOR ALL LAYERS
    PRINT BUDGET
 SOLVING FOR ZETA FOR LAYER     1 ZONE     2

    4969 UPPER PART EQS.      4937 LOWER PART EQS.    BAND WIDTH + 1 =  104
 STRESS PERIOD=  1 TIMESTEP= 40 LAYER=  1 ZONE=  2 ACTIVE CELLS= 9906 NUMBER OF EQUATIONS=    9906
 UBUDSV SAVING "      ZETASRF  1" ON UNIT 55 AT TIME STEP 40, STRESS PERIOD    1


                      VOLUMETRIC SWI ZONE BUDGET FOR ENTIRE MODEL
                     AT END OF TIME STEP   40 IN STRESS PERIOD   1
                                      ZONE     1
  -----------------------------------------------------------------------------------

        CUMULATIVE VOLUMES      L**3       RATES FOR THIS TIME STEP      L**3/T
        ------------------                 ------------------------

              IN:                                      IN:
              ---                                      ---
             BOUNDARIES = 11991902208.0000            BOUNDARIES =      821414.2500
          CONSTANT HEAD =           0.0000         CONSTANT HEAD =           0.0000
            ZONE CHANGE =   750950272.0000           ZONE CHANGE =       20022.1621
       ZONE CHG TIP/TOE =     6171188.0000      ZONE CHG TIP/TOE =         685.5291
            ZONE MIXING =           0.0000           ZONE MIXING =           0.0000

               TOTAL IN = 12749024256.0000              TOTAL IN =      842121.9375

             OUT:                                     OUT:
             ----                                     ----
             BOUNDARIES =           0.0000            BOUNDARIES =           0.0000
          CONSTANT HEAD =  7263928320.0000         CONSTANT HEAD =      343599.5000
            ZONE CHANGE =  9735178240.0000           ZONE CHANGE =      796520.2500
       ZONE CHG TIP/TOE =     4416516.5000      ZONE CHG TIP/TOE =         462.3956
            ZONE MIXING =           0.0000           ZONE MIXING =           0.0000

              TOTAL OUT = 17003523072.0000             TOTAL OUT =     1140582.1250

               IN - OUT = -4254498816.0000              IN - OUT =     -298460.1875

    PERCENT DISCREPANCY =         -28.60     PERCENT DISCREPANCY =         -30.11



                      VOLUMETRIC SWI ZONE BUDGET FOR ENTIRE MODEL
                     AT END OF TIME STEP   40 IN STRESS PERIOD   1
                                      ZONE     2
  -----------------------------------------------------------------------------------

        CUMULATIVE VOLUMES      L**3       RATES FOR THIS TIME STEP      L**3/T
        ------------------                 ------------------------

              IN:                                      IN:
              ---                                      ---
             BOUNDARIES =    27676284.0000            BOUNDARIES =        1281.1368
          CONSTANT HEAD =    46792652.0000         CONSTANT HEAD =        3991.7383
            ZONE CHANGE =  9735178240.0000           ZONE CHANGE =      796520.2500
       ZONE CHG TIP/TOE =  1057520064.0000      ZONE CHG TIP/TOE =       14127.8301
            ZONE MIXING =           0.0000           ZONE MIXING =           0.0000

               TOTAL IN = 10867167232.0000              TOTAL IN =      815920.9375

             OUT:                                     OUT:
             ----                                     ----
             BOUNDARIES =           0.0000            BOUNDARIES =           0.0000
          CONSTANT HEAD =  4802444800.0000         CONSTANT HEAD =      483087.6875
            ZONE CHANGE =  1804054016.0000           ZONE CHANGE =       33687.5977
       ZONE CHG TIP/TOE =     6171188.0000      ZONE CHG TIP/TOE =         685.5291
            ZONE MIXING =           0.0000           ZONE MIXING =           0.0000

              TOTAL OUT =  6612669952.0000             TOTAL OUT =      517460.8125

               IN - OUT =  4254497280.0000              IN - OUT =      298460.1250

    PERCENT DISCREPANCY =          48.68     PERCENT DISCREPANCY =          44.77


 HEAD WILL BE SAVED ON UNIT   51 AT END OF TIME STEP   40, STRESS PERIOD    1
1
  VOLUMETRIC BUDGET FOR ENTIRE MODEL AT END OF TIME STEP   40, STRESS PERIOD   1
  ------------------------------------------------------------------------------

     CUMULATIVE VOLUMES      L**3       RATES FOR THIS TIME STEP      L**3/T
     ------------------                 ------------------------

           IN:                                      IN:
           ---                                      ---
             STORAGE =           0.0000               STORAGE =           0.0000
       CONSTANT HEAD =  1212250496.0000         CONSTANT HEAD =       73138.8984
          SWIADDTOCH = 25868726272.0000            SWIADDTOCH =     3941435.2500
            RECHARGE = 12019585024.0000              RECHARGE =      822695.3750

            TOTAL IN = 39100563456.0000              TOTAL IN =     4837269.5000

          OUT:                                     OUT:
          ----                                     ----
             STORAGE =           0.0000               STORAGE =           0.0000
       CONSTANT HEAD = 37932523520.0000         CONSTANT HEAD =     4815538.0000
          SWIADDTOCH =  1168038912.0000            SWIADDTOCH =       21731.6543
            RECHARGE =           0.0000              RECHARGE =           0.0000

           TOTAL OUT = 39100563456.0000             TOTAL OUT =     4837269.5000

            IN - OUT =           0.0000              IN - OUT =           0.0000

 PERCENT DISCREPANCY =           0.00     PERCENT DISCREPANCY =           0.00






         TIME SUMMARY AT END OF TIME STEP   40 IN STRESS PERIOD    1
                    SECONDS     MINUTES      HOURS       DAYS        YEARS
                    -----------------------------------------------------------
   TIME STEP LENGTH 3.15576E+07 5.25960E+05  8766.0      365.25      1.0000    
 STRESS PERIOD TIME 1.26230E+09 2.10384E+07 3.50640E+05  14610.      40.000    
         TOTAL TIME 1.26230E+09 2.10384E+07 3.50640E+05  14610.      40.000    
1
 
 SOLVING FOR HEAD 

 NO OUTPUT CONTROL FOR STRESS PERIOD    1   TIME STEP   41
 SOLVING FOR ZETA FOR LAYER     1 ZONE     2

    5206 UPPER PART EQS.      5213 LOWER PART EQS.    BAND WIDTH + 1 =   98
 STRESS PERIOD=  1 TIMESTEP= 41 LAYER=  1 ZONE=  2 ACTIVE CELLS=10419 NUMBER OF EQUATIONS=   10419
 
 SOLVING FOR HEAD 

 NO OUTPUT CONTROL FOR STRESS PERIOD    1   TIME STEP   42
 SOLVING FOR ZETA FOR LAYER     1 ZONE     2

    5100 UPPER PART EQS.      5049 LOWER PART EQS.    BAND WIDTH + 1 =  103
 STRESS PERIOD=  1 TIMESTEP= 42 LAYER=  1 ZONE=  2 ACTIVE CELLS=10149 NUMBER OF EQUATIONS=   10149
 
 SOLVING FOR HEAD 

 NO OUTPUT CONTROL FOR STRESS PERIOD    1   TIME STEP   43
 SOLVING FOR ZETA FOR LAYER     1 ZONE     2

    5265 UPPER PART EQS.      5316 LOWER PART EQS.    BAND WIDTH + 1 =  107
 INSUFFICIENT MEMORY FOR DE4 SOLVER:
 MXBW MUST BE AT LEAST  107
 
 SOLVING FOR HEAD 

 NO OUTPUT CONTROL FOR STRESS PERIOD    1   TIME STEP   44
 SOLVING FOR ZETA FOR LAYER     1 ZONE     2

    5333 UPPER PART EQS.      5339 LOWER PART EQS.    BAND WIDTH + 1 =   97
 STRESS PERIOD=  1 TIMESTEP= 44 LAYER=  1 ZONE=  2 ACTIVE CELLS=10672 NUMBER OF EQUATIONS=   10672
 
 SOLVING FOR HEAD 

 NO OUTPUT CONTROL FOR STRESS PERIOD    1   TIME STEP   45
 SOLVING FOR ZETA FOR LAYER     1 ZONE     2

    5168 UPPER PART EQS.      5147 LOWER PART EQS.    BAND WIDTH + 1 =  101
 STRESS PERIOD=  1 TIMESTEP= 45 LAYER=  1 ZONE=  2 ACTIVE CELLS=10315 NUMBER OF EQUATIONS=   10315
 
 SOLVING FOR HEAD 

 NO OUTPUT CONTROL FOR STRESS PERIOD    1   TIME STEP   46
 SOLVING FOR ZETA FOR LAYER     1 ZONE     2

    5377 UPPER PART EQS.      5378 LOWER PART EQS.    BAND WIDTH + 1 =   98
 STRESS PERIOD=  1 TIMESTEP= 46 LAYER=  1 ZONE=  2 ACTIVE CELLS=10755 NUMBER OF EQUATIONS=   10755
 
 SOLVING FOR HEAD 

 NO OUTPUT CONTROL FOR STRESS PERIOD    1   TIME STEP   47
 SOLVING FOR ZETA FOR LAYER     1 ZONE     2

    5303 UPPER PART EQS.      5304 LOWER PART EQS.    BAND WIDTH + 1 =  111
 INSUFFICIENT MEMORY FOR DE4 SOLVER:
 MXBW MUST BE AT LEAST  111
 
 SOLVING FOR HEAD 

 NO OUTPUT CONTROL FOR STRESS PERIOD    1   TIME STEP   48
 SOLVING FOR ZETA FOR LAYER     1 ZONE     2

    5485 UPPER PART EQS.      5486 LOWER PART EQS.    BAND WIDTH + 1 =  119
 INSUFFICIENT MEMORY FOR DE4 SOLVER:
 MXBW MUST BE AT LEAST  119
 
 SOLVING FOR HEAD 

 NO OUTPUT CONTROL FOR STRESS PERIOD    1   TIME STEP   49
 SOLVING FOR ZETA FOR LAYER     1 ZONE     2

    5556 UPPER PART EQS.      5544 LOWER PART EQS.    BAND WIDTH + 1 =  109
 INSUFFICIENT MEMORY FOR DE4 SOLVER:
 MXBW MUST BE AT LEAST  109
 
 SOLVING FOR HEAD 

 NO OUTPUT CONTROL FOR STRESS PERIOD    1   TIME STEP   50
 SOLVING FOR ZETA FOR LAYER     1 ZONE     2

    5579 UPPER PART EQS.      5568 LOWER PART EQS.    BAND WIDTH + 1 =  116
 INSUFFICIENT MEMORY FOR DE4 SOLVER:
 MXBW MUST BE AT LEAST  116
 
 SOLVING FOR HEAD 

 NO OUTPUT CONTROL FOR STRESS PERIOD    1   TIME STEP   51
 SOLVING FOR ZETA FOR LAYER     1 ZONE     2

    5594 UPPER PART EQS.      5615 LOWER PART EQS.    BAND WIDTH + 1 =  109
 INSUFFICIENT MEMORY FOR DE4 SOLVER:
 MXBW MUST BE AT LEAST  109
 
 SOLVING FOR HEAD 

 NO OUTPUT CONTROL FOR STRESS PERIOD    1   TIME STEP   52
 SOLVING FOR ZETA FOR LAYER     1 ZONE     2

    5632 UPPER PART EQS.      5608 LOWER PART EQS.    BAND WIDTH + 1 =  112
 INSUFFICIENT MEMORY FOR DE4 SOLVER:
 MXBW MUST BE AT LEAST  112
 
 SOLVING FOR HEAD 

 NO OUTPUT CONTROL FOR STRESS PERIOD    1   TIME STEP   53
 SOLVING FOR ZETA FOR LAYER     1 ZONE     2

    5627 UPPER PART EQS.      5650 LOWER PART EQS.    BAND WIDTH + 1 =  105
 STRESS PERIOD=  1 TIMESTEP= 53 LAYER=  1 ZONE=  2 ACTIVE CELLS=11277 NUMBER OF EQUATIONS=   11277
 
 SOLVING FOR HEAD 

 NO OUTPUT CONTROL FOR STRESS PERIOD    1   TIME STEP   54
 SOLVING FOR ZETA FOR LAYER     1 ZONE     2

    5235 UPPER PART EQS.      5211 LOWER PART EQS.    BAND WIDTH + 1 =  103
 STRESS PERIOD=  1 TIMESTEP= 54 LAYER=  1 ZONE=  2 ACTIVE CELLS=10446 NUMBER OF EQUATIONS=   10446
 
 SOLVING FOR HEAD 

 NO OUTPUT CONTROL FOR STRESS PERIOD    1   TIME STEP   55
 SOLVING FOR ZETA FOR LAYER     1 ZONE     2

    5539 UPPER PART EQS.      5552 LOWER PART EQS.    BAND WIDTH + 1 =  105
 STRESS PERIOD=  1 TIMESTEP= 55 LAYER=  1 ZONE=  2 ACTIVE CELLS=11091 NUMBER OF EQUATIONS=   11091
 
 SOLVING FOR HEAD 

 NO OUTPUT CONTROL FOR STRESS PERIOD    1   TIME STEP   56
 SOLVING FOR ZETA FOR LAYER     1 ZONE     2

    5426 UPPER PART EQS.      5435 LOWER PART EQS.    BAND WIDTH + 1 =  105
 STRESS PERIOD=  1 TIMESTEP= 56 LAYER=  1 ZONE=  2 ACTIVE CELLS=10861 NUMBER OF EQUATIONS=   10861
 
 SOLVING FOR HEAD 

 NO OUTPUT CONTROL FOR STRESS PERIOD    1   TIME STEP   57
 SOLVING FOR ZETA FOR LAYER     1 ZONE     2

    5583 UPPER PART EQS.      5588 LOWER PART EQS.    BAND WIDTH + 1 =   98
 STRESS PERIOD=  1 TIMESTEP= 57 LAYER=  1 ZONE=  2 ACTIVE CELLS=11171 NUMBER OF EQUATIONS=   11171
 
 SOLVING FOR HEAD 

 NO OUTPUT CONTROL FOR STRESS PERIOD    1   TIME STEP   58
 SOLVING FOR ZETA FOR LAYER     1 ZONE     2

    5443 UPPER PART EQS.      5444 LOWER PART EQS.    BAND WIDTH + 1 =  104
 STRESS PERIOD=  1 TIMESTEP= 58 LAYER=  1 ZONE=  2 ACTIVE CELLS=10887 NUMBER OF EQUATIONS=   10887
 
 SOLVING FOR HEAD 

 NO OUTPUT CONTROL FOR STRESS PERIOD    1   TIME STEP   59
 SOLVING FOR ZETA FOR LAYER     1 ZONE     2

    5633 UPPER PART EQS.      5626 LOWER PART EQS.    BAND WIDTH + 1 =  101
 STRESS PERIOD=  1 TIMESTEP= 59 LAYER=  1 ZONE=  2 ACTIVE CELLS=11259 NUMBER OF EQUATIONS=   11259
 
 SOLVING FOR HEAD 

 OUTPUT CONTROL FOR STRESS PERIOD    1   TIME STEP   60
    SAVE HEAD FOR ALL LAYERS
    PRINT BUDGET
 SOLVING FOR ZETA FOR LAYER     1 ZONE     2

    5472 UPPER PART EQS.      5480 LOWER PART EQS.    BAND WIDTH + 1 =  104
 STRESS PERIOD=  1 TIMESTEP= 60 LAYER=  1 ZONE=  2 ACTIVE CELLS=10952 NUMBER OF EQUATIONS=   10952
 UBUDSV SAVING "      ZETASRF  1" ON UNIT 55 AT TIME STEP 60, STRESS PERIOD    1


                      VOLUMETRIC SWI ZONE BUDGET FOR ENTIRE MODEL
                     AT END OF TIME STEP   60 IN STRESS PERIOD   1
                                      ZONE     1
  -----------------------------------------------------------------------------------

        CUMULATIVE VOLUMES      L**3       RATES FOR THIS TIME STEP      L**3/T
        ------------------                 ------------------------

              IN:                                      IN:
              ---                                      ---
             BOUNDARIES = 18000041984.0000            BOUNDARIES =      822517.2500
          CONSTANT HEAD =           0.0000         CONSTANT HEAD =           0.0000
            ZONE CHANGE =  1006427200.0000           ZONE CHANGE =       11474.5801
       ZONE CHG TIP/TOE =     8465947.0000      ZONE CHG TIP/TOE =         495.0601
            ZONE MIXING =           0.0000           ZONE MIXING =           0.0000

               TOTAL IN = 19014936576.0000              TOTAL IN =      834486.8750

             OUT:                                     OUT:
             ----                                     ----
             BOUNDARIES =           0.0000            BOUNDARIES =           0.0000
          CONSTANT HEAD = 12280951808.0000         CONSTANT HEAD =      492872.2500
            ZONE CHANGE = 12419817472.0000           ZONE CHANGE =      612797.8750
       ZONE CHG TIP/TOE =     6162083.5000      ZONE CHG TIP/TOE =         345.0824
            ZONE MIXING =           0.0000           ZONE MIXING =           0.0000

              TOTAL OUT = 24706930688.0000             TOTAL OUT =     1106015.2500

               IN - OUT = -5691994112.0000              IN - OUT =     -271528.3750

    PERCENT DISCREPANCY =         -26.04     PERCENT DISCREPANCY =         -27.99



                      VOLUMETRIC SWI ZONE BUDGET FOR ENTIRE MODEL
                     AT END OF TIME STEP   60 IN STRESS PERIOD   1
                                      ZONE     2
  -----------------------------------------------------------------------------------

        CUMULATIVE VOLUMES      L**3       RATES FOR THIS TIME STEP      L**3/T
        ------------------                 ------------------------

              IN:                                      IN:
              ---                                      ---
             BOUNDARIES =    29326640.0000            BOUNDARIES =         178.1523
          CONSTANT HEAD =    78347592.0000         CONSTANT HEAD =        4277.8198
            ZONE CHANGE = 12419817472.0000           ZONE CHANGE =      612797.8750
       ZONE CHG TIP/TOE =  1313217792.0000      ZONE CHG TIP/TOE =       11210.1162
            ZONE MIXING =           0.0000           ZONE MIXING =           0.0000

               TOTAL IN = 13840709632.0000              TOTAL IN =      628464.0000

             OUT:                                     OUT:
             ----                                     ----
             BOUNDARIES =           0.0000            BOUNDARIES =           0.0000
          CONSTANT HEAD =  5826765312.0000         CONSTANT HEAD =      334100.9688
            ZONE CHANGE =  2313482752.0000           ZONE CHANGE =       22339.6133
       ZONE CHG TIP/TOE =     8465947.0000      ZONE CHG TIP/TOE =         495.0601
            ZONE MIXING =           0.0000           ZONE MIXING =           0.0000

              TOTAL OUT =  8148713984.0000             TOTAL OUT =      356935.6562

               IN - OUT =  5691995648.0000              IN - OUT =      271528.3438

    PERCENT DISCREPANCY =          51.77     PERCENT DISCREPANCY =          55.11


 HEAD WILL BE SAVED ON UNIT   51 AT END OF TIME STEP   60, STRESS PERIOD    1
1
  VOLUMETRIC BUDGET FOR ENTIRE MODEL AT END OF TIME STEP   60, STRESS PERIOD   1
  ------------------------------------------------------------------------------

     CUMULATIVE VOLUMES      L**3       RATES FOR THIS TIME STEP      L**3/T
     ------------------                 ------------------------

           IN:                                      IN:
           ---                                      ---
             STORAGE =           0.0000               STORAGE =           0.0000
       CONSTANT HEAD =  1255975552.0000         CONSTANT HEAD =         261.1222
          SWIADDTOCH = 64447791104.0000            SWIADDTOCH =     5533778.0000
            RECHARGE = 18029377536.0000              RECHARGE =      822695.3750

            TOTAL IN = 83733143552.0000              TOTAL IN =     6356734.5000

          OUT:                                     OUT:
          ----                                     ----
             STORAGE =           0.0000               STORAGE =           0.0000
       CONSTANT HEAD = 82481209344.0000         CONSTANT HEAD =     6349151.0000
          SWIADDTOCH =  1251924864.0000            SWIADDTOCH =        7583.7339
            RECHARGE =           0.0000              RECHARGE =           0.0000

           TOTAL OUT = 83733135360.0000             TOTAL OUT =     6356734.5000

            IN - OUT =        8192.0000              IN - OUT =           0.0000

 PERCENT DISCREPANCY =           0.00     PERCENT DISCREPANCY =           0.00






         TIME SUMMARY AT END OF TIME STEP   60 IN STRESS PERIOD    1
                    SECONDS     MINUTES      HOURS       DAYS        YEARS
                    -----------------------------------------------------------
   TIME STEP LENGTH 3.15576E+07 5.25960E+05  8766.0      365.25      1.0000    
 STRESS PERIOD TIME 1.89346E+09 3.15576E+07 5.25960E+05  21915.      60.000    
         TOTAL TIME 1.89346E+09 3.15576E+07 5.25960E+05  21915.      60.000    
1
 
 SOLVING FOR HEAD 

 NO OUTPUT CONTROL FOR STRESS PERIOD    1   TIME STEP   61
 SOLVING FOR ZETA FOR LAYER     1 ZONE     2

    5644 UPPER PART EQS.      5629 LOWER PART EQS.    BAND WIDTH + 1 =  101
 STRESS PERIOD=  1 TIMESTEP= 61 LAYER=  1 ZONE=  2 ACTIVE CELLS=11273 NUMBER OF EQUATIONS=   11273
 
 SOLVING FOR HEAD 

 NO OUTPUT CONTROL FOR STRESS PERIOD    1   TIME STEP   62
 SOLVING FOR ZETA FOR LAYER     1 ZONE     2

    5517 UPPER PART EQS.      5542 LOWER PART EQS.    BAND WIDTH + 1 =  115
 INSUFFICIENT MEMORY FOR DE4 SOLVER:
 MXBW MUST BE AT LEAST  115
 
 SOLVING FOR HEAD 

 NO OUTPUT CONTROL FOR STRESS PERIOD    1   TIME STEP   63
 SOLVING FOR ZETA FOR LAYER     1 ZONE     2

    5703 UPPER PART EQS.      5678 LOWER PART EQS.    BAND WIDTH + 1 =  100
 STRESS PERIOD=  1 TIMESTEP= 63 LAYER=  1 ZONE=  2 ACTIVE CELLS=11381 NUMBER OF EQUATIONS=   11381
 
 SOLVING FOR HEAD 

 NO OUTPUT CONTROL FOR STRESS PERIOD    1   TIME STEP   64
 SOLVING FOR ZETA FOR LAYER     1 ZONE     2

    5497 UPPER PART EQS.      5509 LOWER PART EQS.    BAND WIDTH + 1 =  104
 STRESS PERIOD=  1 TIMESTEP= 64 LAYER=  1 ZONE=  2 ACTIVE CELLS=11006 NUMBER OF EQUATIONS=   11006
 
 SOLVING FOR HEAD 

 NO OUTPUT CONTROL FOR STRESS PERIOD    1   TIME STEP   65
 SOLVING FOR ZETA FOR LAYER     1 ZONE     2

    5674 UPPER PART EQS.      5686 LOWER PART EQS.    BAND WIDTH + 1 =  103
 STRESS PERIOD=  1 TIMESTEP= 65 LAYER=  1 ZONE=  2 ACTIVE CELLS=11360 NUMBER OF EQUATIONS=   11360
 
 SOLVING FOR HEAD 

 NO OUTPUT CONTROL FOR STRESS PERIOD    1   TIME STEP   66
 SOLVING FOR ZETA FOR LAYER     1 ZONE     2

    5565 UPPER PART EQS.      5568 LOWER PART EQS.    BAND WIDTH + 1 =  100
 STRESS PERIOD=  1 TIMESTEP= 66 LAYER=  1 ZONE=  2 ACTIVE CELLS=11133 NUMBER OF EQUATIONS=   11133
 
 SOLVING FOR HEAD 

 NO OUTPUT CONTROL FOR STRESS PERIOD    1   TIME STEP   67
 SOLVING FOR ZETA FOR LAYER     1 ZONE     2

    5667 UPPER PART EQS.      5675 LOWER PART EQS.    BAND WIDTH + 1 =  102
 STRESS PERIOD=  1 TIMESTEP= 67 LAYER=  1 ZONE=  2 ACTIVE CELLS=11342 NUMBER OF EQUATIONS=   11342
 
 SOLVING FOR HEAD 

 NO OUTPUT CONTROL FOR STRESS PERIOD    1   TIME STEP   68
 SOLVING FOR ZETA FOR LAYER     1 ZONE     2

    5586 UPPER PART EQS.      5599 LOWER PART EQS.    BAND WIDTH + 1 =  102
 STRESS PERIOD=  1 TIMESTEP= 68 LAYER=  1 ZONE=  2 ACTIVE CELLS=11185 NUMBER OF EQUATIONS=   11185
 
 SOLVING FOR HEAD 

 NO OUTPUT CONTROL FOR STRESS PERIOD    1   TIME STEP   69
 SOLVING FOR ZETA FOR LAYER     1 ZONE     2

    5708 UPPER PART EQS.      5728 LOWER PART EQS.    BAND WIDTH + 1 =   97
 STRESS PERIOD=  1 TIMESTEP= 69 LAYER=  1 ZONE=  2 ACTIVE CELLS=11436 NUMBER OF EQUATIONS=   11436
 
 SOLVING FOR HEAD 

 NO OUTPUT CONTROL FOR STRESS PERIOD    1   TIME STEP   70
 SOLVING FOR ZETA FOR LAYER     1 ZONE     2

    5638 UPPER PART EQS.      5634 LOWER PART EQS.    BAND WIDTH + 1 =   99
 STRESS PERIOD=  1 TIMESTEP= 70 LAYER=  1 ZONE=  2 ACTIVE CELLS=11272 NUMBER OF EQUATIONS=   11272
 
 SOLVING FOR HEAD 

 NO OUTPUT CONTROL FOR STRESS PERIOD    1   TIME STEP   71
 SOLVING FOR ZETA FOR LAYER     1 ZONE     2

    5722 UPPER PART EQS.      5750 LOWER PART EQS.    BAND WIDTH + 1 =  106
 INSUFFICIENT MEMORY FOR DE4 SOLVER:
 MXBW MUST BE AT LEAST  106
 
 SOLVING FOR HEAD 

 NO OUTPUT CONTROL FOR STRESS PERIOD    1   TIME STEP   72
 SOLVING FOR ZETA FOR LAYER     1 ZONE     2

    5787 UPPER PART EQS.      5785 LOWER PART EQS.    BAND WIDTH + 1 =  105
 STRESS PERIOD=  1 TIMESTEP= 72 LAYER=  1 ZONE=  2 ACTIVE CELLS=11572 NUMBER OF EQUATIONS=   11572
 
 SOLVING FOR HEAD 

 NO OUTPUT CONTROL FOR STRESS PERIOD    1   TIME STEP   73
 SOLVING FOR ZETA FOR LAYER     1 ZONE     2

    5656 UPPER PART EQS.      5660 LOWER PART EQS.    BAND WIDTH + 1 =   96
 STRESS PERIOD=  1 TIMESTEP= 73 LAYER=  1 ZONE=  2 ACTIVE CELLS=11316 NUMBER OF EQUATIONS=   11316
 
 SOLVING FOR HEAD 

 NO OUTPUT CONTROL FOR STRESS PERIOD    1   TIME STEP   74
 SOLVING FOR ZETA FOR LAYER     1 ZONE     2

    5768 UPPER PART EQS.      5770 LOWER PART EQS.    BAND WIDTH + 1 =   99
 STRESS PERIOD=  1 TIMESTEP= 74 LAYER=  1 ZONE=  2 ACTIVE CELLS=11538 NUMBER OF EQUATIONS=   11538
 
 SOLVING FOR HEAD 

 NO OUTPUT CONTROL FOR STRESS PERIOD    1   TIME STEP   75
 SOLVING FOR ZETA FOR LAYER     1 ZONE     2

    5689 UPPER PART EQS.      5699 LOWER PART EQS.    BAND WIDTH + 1 =  104
 STRESS PERIOD=  1 TIMESTEP= 75 LAYER=  1 ZONE=  2 ACTIVE CELLS=11388 NUMBER OF EQUATIONS=   11388
 
 SOLVING FOR HEAD 

 NO OUTPUT CONTROL FOR STRESS PERIOD    1   TIME STEP   76
 SOLVING FOR ZETA FOR LAYER     1 ZONE     2

    5783 UPPER PART EQS.      5783 LOWER PART EQS.    BAND WIDTH + 1 =  100
 STRESS PERIOD=  1 TIMESTEP= 76 LAYER=  1 ZONE=  2 ACTIVE CELLS=11566 NUMBER OF EQUATIONS=   11566
 
 SOLVING FOR HEAD 

 NO OUTPUT CONTROL FOR STRESS PERIOD    1   TIME STEP   77
 SOLVING FOR ZETA FOR LAYER     1 ZONE     2

    5728 UPPER PART EQS.      5733 LOWER PART EQS.    BAND WIDTH + 1 =  112
 INSUFFICIENT MEMORY FOR DE4 SOLVER:
 MXBW MUST BE AT LEAST  112
 
 SOLVING FOR HEAD 

 NO OUTPUT CONTROL FOR STRESS PERIOD    1   TIME STEP   78
 SOLVING FOR ZETA FOR LAYER     1 ZONE     2

    5864 UPPER PART EQS.      5848 LOWER PART EQS.    BAND WIDTH + 1 =  114
 INSUFFICIENT MEMORY FOR DE4 SOLVER:
 MXBW MUST BE AT LEAST  114
 
 SOLVING FOR HEAD 

 NO OUTPUT CONTROL FOR STRESS PERIOD    1   TIME STEP   79
 SOLVING FOR ZETA FOR LAYER     1 ZONE     2

    5898 UPPER PART EQS.      5900 LOWER PART EQS.    BAND WIDTH + 1 =  114
 INSUFFICIENT MEMORY FOR DE4 SOLVER:
 MXBW MUST BE AT LEAST  114
 
 SOLVING FOR HEAD 

 OUTPUT CONTROL FOR STRESS PERIOD    1   TIME STEP   80
    SAVE HEAD FOR ALL LAYERS
    PRINT BUDGET
 SOLVING FOR ZETA FOR LAYER     1 ZONE     2

    5920 UPPER PART EQS.      5916 LOWER PART EQS.    BAND WIDTH + 1 =  106
 INSUFFICIENT MEMORY FOR DE4 SOLVER:
 MXBW MUST BE AT LEAST  106
 UBUDSV SAVING "      ZETASRF  1" ON UNIT 55 AT TIME STEP 80, STRESS PERIOD    1


                      VOLUMETRIC SWI ZONE BUDGET FOR ENTIRE MODEL
                     AT END OF TIME STEP   80 IN STRESS PERIOD   1
                                      ZONE     1
  -----------------------------------------------------------------------------------

        CUMULATIVE VOLUMES      L**3       RATES FOR THIS TIME STEP      L**3/T
        ------------------                 ------------------------

              IN:                                      IN:
              ---                                      ---
             BOUNDARIES = 24009555968.0000            BOUNDARIES =      822695.3750
          CONSTANT HEAD =           0.0000         CONSTANT HEAD =           0.0000
            ZONE CHANGE =  1256572672.0000           ZONE CHANGE =           0.0000
       ZONE CHG TIP/TOE =    10313589.0000      ZONE CHG TIP/TOE =          74.4207
            ZONE MIXING =           0.0000           ZONE MIXING =           0.0000

               TOTAL IN = 25276442624.0000              TOTAL IN =      822769.8125

             OUT:                                     OUT:
             ----                                     ----
             BOUNDARIES =           0.0000            BOUNDARIES =           0.0000
          CONSTANT HEAD = 17471680512.0000         CONSTANT HEAD =      826236.3750
            ZONE CHANGE = 14726821888.0000           ZONE CHANGE =           0.0000
       ZONE CHG TIP/TOE =     7611348.5000      ZONE CHG TIP/TOE =          62.8126
            ZONE MIXING =           0.0000           ZONE MIXING =           0.0000

              TOTAL OUT = 32206112768.0000             TOTAL OUT =      826299.1875

               IN - OUT = -6929670144.0000              IN - OUT =       -3529.3750

    PERCENT DISCREPANCY =         -24.11     PERCENT DISCREPANCY =          -0.43



                      VOLUMETRIC SWI ZONE BUDGET FOR ENTIRE MODEL
                     AT END OF TIME STEP   80 IN STRESS PERIOD   1
                                      ZONE     2
  -----------------------------------------------------------------------------------

        CUMULATIVE VOLUMES      L**3       RATES FOR THIS TIME STEP      L**3/T
        ------------------                 ------------------------

              IN:                                      IN:
              ---                                      ---
             BOUNDARIES =    29594638.0000            BOUNDARIES =           0.0000
          CONSTANT HEAD =   111293432.0000         CONSTANT HEAD =        4859.5747
            ZONE CHANGE = 14726821888.0000           ZONE CHANGE =           0.0000
       ZONE CHG TIP/TOE =  1484815104.0000      ZONE CHG TIP/TOE =          62.8126
            ZONE MIXING =           0.0000           ZONE MIXING =           0.0000

               TOTAL IN = 16352525312.0000              TOTAL IN =        4922.3872

             OUT:                                     OUT:
             ----                                     ----
             BOUNDARIES =           0.0000            BOUNDARIES =           0.0000
          CONSTANT HEAD =  6678772224.0000         CONSTANT HEAD =        1318.5975
            ZONE CHANGE =  2733776384.0000           ZONE CHANGE =           0.0000
       ZONE CHG TIP/TOE =    10313589.0000      ZONE CHG TIP/TOE =          74.4207
            ZONE MIXING =           0.0000           ZONE MIXING =           0.0000

              TOTAL OUT =  9422862336.0000             TOTAL OUT =        1393.0182

               IN - OUT =  6929662976.0000              IN - OUT =        3529.3691

    PERCENT DISCREPANCY =          53.77     PERCENT DISCREPANCY =         111.77


 HEAD WILL BE SAVED ON UNIT   51 AT END OF TIME STEP   80, STRESS PERIOD    1
1
  VOLUMETRIC BUDGET FOR ENTIRE MODEL AT END OF TIME STEP   80, STRESS PERIOD   1
  ------------------------------------------------------------------------------

     CUMULATIVE VOLUMES      L**3       RATES FOR THIS TIME STEP      L**3/T
     ------------------                 ------------------------

           IN:                                      IN:
           ---                                      ---
             STORAGE =           0.0000               STORAGE =           0.0000
       CONSTANT HEAD =  1257220480.0000         CONSTANT HEAD =         129.9359
          SWIADDTOCH =105691209728.0000            SWIADDTOCH =     5635086.0000
            RECHARGE = 24039151616.0000              RECHARGE =      822695.3750

            TOTAL IN =130987581440.0000              TOTAL IN =     6457911.5000

          OUT:                                     OUT:
          ----                                     ----
             STORAGE =           0.0000               STORAGE =           0.0000
       CONSTANT HEAD =129690804224.0000         CONSTANT HEAD =     6452452.5000
          SWIADDTOCH =  1296812928.0000            SWIADDTOCH =        5459.1147
            RECHARGE =           0.0000              RECHARGE =           0.0000

           TOTAL OUT =130987614208.0000             TOTAL OUT =     6457911.5000

            IN - OUT =      -32768.0000              IN - OUT =           0.0000

 PERCENT DISCREPANCY =          -0.00     PERCENT DISCREPANCY =           0.00






         TIME SUMMARY AT END OF TIME STEP   80 IN STRESS PERIOD    1
                    SECONDS     MINUTES      HOURS       DAYS        YEARS
                    -----------------------------------------------------------
   TIME STEP LENGTH 3.15576E+07 5.25960E+05  8766.0      365.25      1.0000    
 STRESS PERIOD TIME 2.52461E+09 4.20768E+07 7.01280E+05  29220.      80.000    
         TOTAL TIME 2.52461E+09 4.20768E+07 7.01280E+05  29220.      80.000    
1
 
 SOLVING FOR HEAD 

 NO OUTPUT CONTROL FOR STRESS PERIOD    1   TIME STEP   81
 SOLVING FOR ZETA FOR LAYER     1 ZONE     2

    5932 UPPER PART EQS.      5934 LOWER PART EQS.    BAND WIDTH + 1 =  116
 INSUFFICIENT MEMORY FOR DE4 SOLVER:
 MXBW MUST BE AT LEAST  116
 
 SOLVING FOR HEAD 

 NO OUTPUT CONTROL FOR STRESS PERIOD    1   TIME STEP   82
 SOLVING FOR ZETA FOR LAYER     1 ZONE     2

    5948 UPPER PART EQS.      5938 LOWER PART EQS.    BAND WIDTH + 1 =  110
 INSUFFICIENT MEMORY FOR DE4 SOLVER:
 MXBW MUST BE AT LEAST  110
 
 SOLVING FOR HEAD 

 NO OUTPUT CONTROL FOR STRESS PERIOD    1   TIME STEP   83
 SOLVING FOR ZETA FOR LAYER     1 ZONE     2

    5944 UPPER PART EQS.      5955 LOWER PART EQS.    BAND WIDTH + 1 =  116
 INSUFFICIENT MEMORY FOR DE4 SOLVER:
 MXBW MUST BE AT LEAST  116
 
 SOLVING FOR HEAD 

 NO OUTPUT CONTROL FOR STRESS PERIOD    1   TIME STEP   84
 SOLVING FOR ZETA FOR LAYER     1 ZONE     2

    5962 UPPER PART EQS.      5945 LOWER PART EQS.    BAND WIDTH + 1 =  110
 INSUFFICIENT MEMORY FOR DE4 SOLVER:
 MXBW MUST BE AT LEAST  110
 
 SOLVING FOR HEAD 

 NO OUTPUT CONTROL FOR STRESS PERIOD    1   TIME STEP   85
 SOLVING FOR ZETA FOR LAYER     1 ZONE     2

    5953 UPPER PART EQS.      5967 LOWER PART EQS.    BAND WIDTH + 1 =  114
 INSUFFICIENT MEMORY FOR DE4 SOLVER:
 MXBW MUST BE AT LEAST  114
 
 SOLVING FOR HEAD 

 NO OUTPUT CONTROL FOR STRESS PERIOD    1   TIME STEP   86
 SOLVING FOR ZETA FOR LAYER     1 ZONE     2

    5972 UPPER PART EQS.      5954 LOWER PART EQS.    BAND WIDTH + 1 =  106
 INSUFFICIENT MEMORY FOR DE4 SOLVER:
 MXBW MUST BE AT LEAST  106
 
 SOLVING FOR HEAD 

 NO OUTPUT CONTROL FOR STRESS PERIOD    1   TIME STEP   87
 SOLVING FOR ZETA FOR LAYER     1 ZONE     2

    5961 UPPER PART EQS.      5973 LOWER PART EQS.    BAND WIDTH + 1 =  109
 INSUFFICIENT MEMORY FOR DE4 SOLVER:
 MXBW MUST BE AT LEAST  109
 
 SOLVING FOR HEAD 

 NO OUTPUT CONTROL FOR STRESS PERIOD    1   TIME STEP   88
 SOLVING FOR ZETA FOR LAYER     1 ZONE     2

    5976 UPPER PART EQS.      5963 LOWER PART EQS.    BAND WIDTH + 1 =  100
 STRESS PERIOD=  1 TIMESTEP= 88 LAYER=  1 ZONE=  2 ACTIVE CELLS=11939 NUMBER OF EQUATIONS=   11939
 
 SOLVING FOR HEAD 

 NO OUTPUT CONTROL FOR STRESS PERIOD    1   TIME STEP   89
 SOLVING FOR ZETA FOR LAYER     1 ZONE     2

    5602 UPPER PART EQS.      5609 LOWER PART EQS.    BAND WIDTH + 1 =  100
 STRESS PERIOD=  1 TIMESTEP= 89 LAYER=  1 ZONE=  2 ACTIVE CELLS=11211 NUMBER OF EQUATIONS=   11211
 
 SOLVING FOR HEAD 

 NO OUTPUT CONTROL FOR STRESS PERIOD    1   TIME STEP   90
 SOLVING FOR ZETA FOR LAYER     1 ZONE     2

    5837 UPPER PART EQS.      5834 LOWER PART EQS.    BAND WIDTH + 1 =   99
 STRESS PERIOD=  1 TIMESTEP= 90 LAYER=  1 ZONE=  2 ACTIVE CELLS=11671 NUMBER OF EQUATIONS=   11671
 
 SOLVING FOR HEAD 

 NO OUTPUT CONTROL FOR STRESS PERIOD    1   TIME STEP   91
 SOLVING FOR ZETA FOR LAYER     1 ZONE     2

    5756 UPPER PART EQS.      5760 LOWER PART EQS.    BAND WIDTH + 1 =  103
 STRESS PERIOD=  1 TIMESTEP= 91 LAYER=  1 ZONE=  2 ACTIVE CELLS=11516 NUMBER OF EQUATIONS=   11516
 
 SOLVING FOR HEAD 

 NO OUTPUT CONTROL FOR STRESS PERIOD    1   TIME STEP   92
 SOLVING FOR ZETA FOR LAYER     1 ZONE     2

    5860 UPPER PART EQS.      5860 LOWER PART EQS.    BAND WIDTH + 1 =  103
 STRESS PERIOD=  1 TIMESTEP= 92 LAYER=  1 ZONE=  2 ACTIVE CELLS=11720 NUMBER OF EQUATIONS=   11720
 
 SOLVING FOR HEAD 

 NO OUTPUT CONTROL FOR STRESS PERIOD    1   TIME STEP   93
 SOLVING FOR ZETA FOR LAYER     1 ZONE     2

    5763 UPPER PART EQS.      5769 LOWER PART EQS.    BAND WIDTH + 1 =  102
 STRESS PERIOD=  1 TIMESTEP= 93 LAYER=  1 ZONE=  2 ACTIVE CELLS=11532 NUMBER OF EQUATIONS=   11532
 
 SOLVING FOR HEAD 

 NO OUTPUT CONTROL FOR STRESS PERIOD    1   TIME STEP   94
 SOLVING FOR ZETA FOR LAYER     1 ZONE     2

    5878 UPPER PART EQS.      5879 LOWER PART EQS.    BAND WIDTH + 1 =  100
 STRESS PERIOD=  1 TIMESTEP= 94 LAYER=  1 ZONE=  2 ACTIVE CELLS=11757 NUMBER OF EQUATIONS=   11757
 
 SOLVING FOR HEAD 

 NO OUTPUT CONTROL FOR STRESS PERIOD    1   TIME STEP   95
 SOLVING FOR ZETA FOR LAYER     1 ZONE     2

    5795 UPPER PART EQS.      5791 LOWER PART EQS.    BAND WIDTH + 1 =  101
 STRESS PERIOD=  1 TIMESTEP= 95 LAYER=  1 ZONE=  2 ACTIVE CELLS=11586 NUMBER OF EQUATIONS=   11586
 
 SOLVING FOR HEAD 

 NO OUTPUT CONTROL FOR STRESS PERIOD    1   TIME STEP   96
 SOLVING FOR ZETA FOR LAYER     1 ZONE     2

    5885 UPPER PART EQS.      5895 LOWER PART EQS.    BAND WIDTH + 1 =  114
 INSUFFICIENT MEMORY FOR DE4 SOLVER:
 MXBW MUST BE AT LEAST  114
 
 SOLVING FOR HEAD 

 NO OUTPUT CONTROL FOR STRESS PERIOD    1   TIME STEP   97
 SOLVING FOR ZETA FOR LAYER     1 ZONE     2

    5947 UPPER PART EQS.      5919 LOWER PART EQS.    BAND WIDTH + 1 =  119
 INSUFFICIENT MEMORY FOR DE4 SOLVER:
 MXBW MUST BE AT LEAST  119
 
 SOLVING FOR HEAD 

 NO OUTPUT CONTROL FOR STRESS PERIOD    1   TIME STEP   98
 SOLVING FOR ZETA FOR LAYER     1 ZONE     2

    5974 UPPER PART EQS.      5975 LOWER PART EQS.    BAND WIDTH + 1 =  108
 INSUFFICIENT MEMORY FOR DE4 SOLVER:
 MXBW MUST BE AT LEAST  108
 
 SOLVING FOR HEAD 

 NO OUTPUT CONTROL FOR STRESS PERIOD    1   TIME STEP   99
 SOLVING FOR ZETA FOR LAYER     1 ZONE     2

    5997 UPPER PART EQS.      5978 LOWER PART EQS.    BAND WIDTH + 1 =  104
 STRESS PERIOD=  1 TIMESTEP= 99 LAYER=  1 ZONE=  2 ACTIVE CELLS=11975 NUMBER OF EQUATIONS=   11975
 
 SOLVING FOR HEAD 

 OUTPUT CONTROL FOR STRESS PERIOD    1   TIME STEP  100
    SAVE HEAD FOR ALL LAYERS
    PRINT BUDGET
 SOLVING FOR ZETA FOR LAYER     1 ZONE     2

    5761 UPPER PART EQS.      5788 LOWER PART EQS.    BAND WIDTH + 1 =  102
 STRESS PERIOD=  1 TIMESTEP=100 LAYER=  1 ZONE=  2 ACTIVE CELLS=11549 NUMBER OF EQUATIONS=   11549
 UBUDSV SAVING "      ZETASRF  1" ON UNIT 55 AT TIME STEP100, STRESS PERIOD    1


                      VOLUMETRIC SWI ZONE BUDGET FOR ENTIRE MODEL
                     AT END OF TIME STEP  100 IN STRESS PERIOD   1
                                      ZONE     1
  -----------------------------------------------------------------------------------

        CUMULATIVE VOLUMES      L**3       RATES FOR THIS TIME STEP      L**3/T
        ------------------                 ------------------------

              IN:                                      IN:
              ---                                      ---
             BOUNDARIES = 30019330048.0000            BOUNDARIES =      822695.3750
          CONSTANT HEAD =           0.0000         CONSTANT HEAD =           0.0000
            ZONE CHANGE =  1422712320.0000           ZONE CHANGE =       10691.0283
       ZONE CHG TIP/TOE =    11398142.0000      ZONE CHG TIP/TOE =         357.5761
            ZONE MIXING =           0.0000           ZONE MIXING =           0.0000

               TOTAL IN = 31453440000.0000              TOTAL IN =      833743.9375

             OUT:                                     OUT:
             ----                                     ----
             BOUNDARIES =           0.0000            BOUNDARIES =           0.0000
          CONSTANT HEAD = 23105466368.0000         CONSTANT HEAD =      644711.1875
            ZONE CHANGE = 16151855104.0000           ZONE CHANGE =      428805.8125
       ZONE CHG TIP/TOE =     8461022.0000      ZONE CHG TIP/TOE =         248.7947
            ZONE MIXING =           0.0000           ZONE MIXING =           0.0000

              TOTAL OUT = 39265783808.0000             TOTAL OUT =     1073765.7500

               IN - OUT = -7812343808.0000              IN - OUT =     -240021.8125

    PERCENT DISCREPANCY =         -22.09     PERCENT DISCREPANCY =         -25.17



                      VOLUMETRIC SWI ZONE BUDGET FOR ENTIRE MODEL
                     AT END OF TIME STEP  100 IN STRESS PERIOD   1
                                      ZONE     2
  -----------------------------------------------------------------------------------

        CUMULATIVE VOLUMES      L**3       RATES FOR THIS TIME STEP      L**3/T
        ------------------                 ------------------------

              IN:                                      IN:
              ---                                      ---
             BOUNDARIES =    29594638.0000            BOUNDARIES =           0.0000
          CONSTANT HEAD =   146832768.0000         CONSTANT HEAD =        4946.9785
            ZONE CHANGE = 16151855104.0000           ZONE CHANGE =      428805.8125
       ZONE CHG TIP/TOE =  1560676480.0000      ZONE CHG TIP/TOE =        5474.8809
            ZONE MIXING =           0.0000           ZONE MIXING =           0.0000

               TOTAL IN = 17888958464.0000              TOTAL IN =      439227.6562

             OUT:                                     OUT:
             ----                                     ----
             BOUNDARIES =           0.0000            BOUNDARIES =           0.0000
          CONSTANT HEAD =  7090318336.0000         CONSTANT HEAD =      182931.1562
            ZONE CHANGE =  2974927616.0000           ZONE CHANGE =       15917.1143
       ZONE CHG TIP/TOE =    11398142.0000      ZONE CHG TIP/TOE =         357.5761
            ZONE MIXING =           0.0000           ZONE MIXING =           0.0000

              TOTAL OUT = 10076644352.0000             TOTAL OUT =      199205.8438

               IN - OUT =  7812314112.0000              IN - OUT =      240021.8125

    PERCENT DISCREPANCY =          55.87     PERCENT DISCREPANCY =          75.19


 HEAD WILL BE SAVED ON UNIT   51 AT END OF TIME STEP  100, STRESS PERIOD    1
1
  VOLUMETRIC BUDGET FOR ENTIRE MODEL AT END OF TIME STEP  100, STRESS PERIOD   1
  ------------------------------------------------------------------------------

     CUMULATIVE VOLUMES      L**3       RATES FOR THIS TIME STEP      L**3/T
     ------------------                 ------------------------

           IN:                                      IN:
           ---                                      ---
             STORAGE =           0.0000               STORAGE =           0.0000
       CONSTANT HEAD =  1258034432.0000         CONSTANT HEAD =          85.3440
          SWIADDTOCH =147208290304.0000            SWIADDTOCH =     5769110.5000
            RECHARGE = 30048925696.0000              RECHARGE =      822695.3750

            TOTAL IN =178515247104.0000              TOTAL IN =     6591891.5000

          OUT:                                     OUT:
          ----                                     ----
             STORAGE =           0.0000               STORAGE =           0.0000
       CONSTANT HEAD =177181671424.0000         CONSTANT HEAD =     6587455.5000
          SWIADDTOCH =  1333641984.0000            SWIADDTOCH =        4435.8374
            RECHARGE =           0.0000              RECHARGE =           0.0000

           TOTAL OUT =178515312640.0000             TOTAL OUT =     6591891.5000

            IN - OUT =      -65536.0000              IN - OUT =           0.0000

 PERCENT DISCREPANCY =          -0.00     PERCENT DISCREPANCY =           0.00






         TIME SUMMARY AT END OF TIME STEP  100 IN STRESS PERIOD    1
                    SECONDS     MINUTES      HOURS       DAYS        YEARS
                    -----------------------------------------------------------
   TIME STEP LENGTH 3.15576E+07 5.25960E+05  8766.0      365.25      1.0000    
 STRESS PERIOD TIME 3.15576E+09 5.25960E+07 8.76600E+05  36525.      100.00    
         TOTAL TIME 3.15576E+09 5.25960E+07 8.76600E+05  36525.      100.00    
1
 
 SOLVING FOR HEAD 

 NO OUTPUT CONTROL FOR STRESS PERIOD    1   TIME STEP  101
 SOLVING FOR ZETA FOR LAYER     1 ZONE     2

    5923 UPPER PART EQS.      5902 LOWER PART EQS.    BAND WIDTH + 1 =  110
 INSUFFICIENT MEMORY FOR DE4 SOLVER:
 MXBW MUST BE AT LEAST  110
 
 SOLVING FOR HEAD 

 NO OUTPUT CONTROL FOR STRESS PERIOD    1   TIME STEP  102
 SOLVING FOR ZETA FOR LAYER     1 ZONE     2

    5947 UPPER PART EQS.      5938 LOWER PART EQS.    BAND WIDTH + 1 =  105
 STRESS PERIOD=  1 TIMESTEP=102 LAYER=  1 ZONE=  2 ACTIVE CELLS=11885 NUMBER OF EQUATIONS=   11885
 
 SOLVING FOR HEAD 

 NO OUTPUT CONTROL FOR STRESS PERIOD    1   TIME STEP  103
 SOLVING FOR ZETA FOR LAYER     1 ZONE     2

    5824 UPPER PART EQS.      5837 LOWER PART EQS.    BAND WIDTH + 1 =  100
 STRESS PERIOD=  1 TIMESTEP=103 LAYER=  1 ZONE=  2 ACTIVE CELLS=11661 NUMBER OF EQUATIONS=   11661
 
 SOLVING FOR HEAD 

 NO OUTPUT CONTROL FOR STRESS PERIOD    1   TIME STEP  104
 SOLVING FOR ZETA FOR LAYER     1 ZONE     2

    5941 UPPER PART EQS.      5918 LOWER PART EQS.    BAND WIDTH + 1 =  107
 INSUFFICIENT MEMORY FOR DE4 SOLVER:
 MXBW MUST BE AT LEAST  107
 
 SOLVING FOR HEAD 

 NO OUTPUT CONTROL FOR STRESS PERIOD    1   TIME STEP  105
 SOLVING FOR ZETA FOR LAYER     1 ZONE     2

    5976 UPPER PART EQS.      5976 LOWER PART EQS.    BAND WIDTH + 1 =  106
 INSUFFICIENT MEMORY FOR DE4 SOLVER:
 MXBW MUST BE AT LEAST  106
 
 SOLVING FOR HEAD 

 NO OUTPUT CONTROL FOR STRESS PERIOD    1   TIME STEP  106
 SOLVING FOR ZETA FOR LAYER     1 ZONE     2

    6010 UPPER PART EQS.      6008 LOWER PART EQS.    BAND WIDTH + 1 =  109
 INSUFFICIENT MEMORY FOR DE4 SOLVER:
 MXBW MUST BE AT LEAST  109
 
 SOLVING FOR HEAD 

 NO OUTPUT CONTROL FOR STRESS PERIOD    1   TIME STEP  107
 SOLVING FOR ZETA FOR LAYER     1 ZONE     2

    6025 UPPER PART EQS.      6018 LOWER PART EQS.    BAND WIDTH + 1 =  108
 INSUFFICIENT MEMORY FOR DE4 SOLVER:
 MXBW MUST BE AT LEAST  108
 
 SOLVING FOR HEAD 

 NO OUTPUT CONTROL FOR STRESS PERIOD    1   TIME STEP  108
 SOLVING FOR ZETA FOR LAYER     1 ZONE     2

    6036 UPPER PART EQS.      6040 LOWER PART EQS.    BAND WIDTH + 1 =  102
 STRESS PERIOD=  1 TIMESTEP=108 LAYER=  1 ZONE=  2 ACTIVE CELLS=12076 NUMBER OF EQUATIONS=   12076
 
 SOLVING FOR HEAD 

 NO OUTPUT CONTROL FOR STRESS PERIOD    1   TIME STEP  109
 SOLVING FOR ZETA FOR LAYER     1 ZONE     2

    5820 UPPER PART EQS.      5817 LOWER PART EQS.    BAND WIDTH + 1 =  103
 STRESS PERIOD=  1 TIMESTEP=109 LAYER=  1 ZONE=  2 ACTIVE CELLS=11637 NUMBER OF EQUATIONS=   11637
 
 SOLVING FOR HEAD 

 NO OUTPUT CONTROL FOR STRESS PERIOD    1   TIME STEP  110
 SOLVING FOR ZETA FOR LAYER     1 ZONE     2

    5942 UPPER PART EQS.      5946 LOWER PART EQS.    BAND WIDTH + 1 =   99
 STRESS PERIOD=  1 TIMESTEP=110 LAYER=  1 ZONE=  2 ACTIVE CELLS=11888 NUMBER OF EQUATIONS=   11888
 
 SOLVING FOR HEAD 

 NO OUTPUT CONTROL FOR STRESS PERIOD    1   TIME STEP  111
 SOLVING FOR ZETA FOR LAYER     1 ZONE     2

    5918 UPPER PART EQS.      5910 LOWER PART EQS.    BAND WIDTH + 1 =  103
 STRESS PERIOD=  1 TIMESTEP=111 LAYER=  1 ZONE=  2 ACTIVE CELLS=11828 NUMBER OF EQUATIONS=   11828
 
 SOLVING FOR HEAD 

 NO OUTPUT CONTROL FOR STRESS PERIOD    1   TIME STEP  112
 SOLVING FOR ZETA FOR LAYER     1 ZONE     2

    5967 UPPER PART EQS.      5962 LOWER PART EQS.    BAND WIDTH + 1 =   98
 STRESS PERIOD=  1 TIMESTEP=112 LAYER=  1 ZONE=  2 ACTIVE CELLS=11929 NUMBER OF EQUATIONS=   11929
 
 SOLVING FOR HEAD 

 NO OUTPUT CONTROL FOR STRESS PERIOD    1   TIME STEP  113
 SOLVING FOR ZETA FOR LAYER     1 ZONE     2

    5901 UPPER PART EQS.      5891 LOWER PART EQS.    BAND WIDTH + 1 =  105
 STRESS PERIOD=  1 TIMESTEP=113 LAYER=  1 ZONE=  2 ACTIVE CELLS=11792 NUMBER OF EQUATIONS=   11792
 
 SOLVING FOR HEAD 

 NO OUTPUT CONTROL FOR STRESS PERIOD    1   TIME STEP  114
 SOLVING FOR ZETA FOR LAYER     1 ZONE     2

    5974 UPPER PART EQS.      5980 LOWER PART EQS.    BAND WIDTH + 1 =   97
 STRESS PERIOD=  1 TIMESTEP=114 LAYER=  1 ZONE=  2 ACTIVE CELLS=11954 NUMBER OF EQUATIONS=   11954
 
 SOLVING FOR HEAD 

 NO OUTPUT CONTROL FOR STRESS PERIOD    1   TIME STEP  115
 SOLVING FOR ZETA FOR LAYER     1 ZONE     2

    5924 UPPER PART EQS.      5913 LOWER PART EQS.    BAND WIDTH + 1 =  103
 STRESS PERIOD=  1 TIMESTEP=115 LAYER=  1 ZONE=  2 ACTIVE CELLS=11837 NUMBER OF EQUATIONS=   11837
 
 SOLVING FOR HEAD 

 NO OUTPUT CONTROL FOR STRESS PERIOD    1   TIME STEP  116
 SOLVING FOR ZETA FOR LAYER     1 ZONE     2

    5979 UPPER PART EQS.      5987 LOWER PART EQS.    BAND WIDTH + 1 =   97
 STRESS PERIOD=  1 TIMESTEP=116 LAYER=  1 ZONE=  2 ACTIVE CELLS=11966 NUMBER OF EQUATIONS=   11966
 
 SOLVING FOR HEAD 

 NO OUTPUT CONTROL FOR STRESS PERIOD    1   TIME STEP  117
 SOLVING FOR ZETA FOR LAYER     1 ZONE     2

    5941 UPPER PART EQS.      5928 LOWER PART EQS.    BAND WIDTH + 1 =   99
 STRESS PERIOD=  1 TIMESTEP=117 LAYER=  1 ZONE=  2 ACTIVE CELLS=11869 NUMBER OF EQUATIONS=   11869
 
 SOLVING FOR HEAD 

 NO OUTPUT CONTROL FOR STRESS PERIOD    1   TIME STEP  118
 SOLVING FOR ZETA FOR LAYER     1 ZONE     2

    5989 UPPER PART EQS.      5990 LOWER PART EQS.    BAND WIDTH + 1 =  103
 STRESS PERIOD=  1 TIMESTEP=118 LAYER=  1 ZONE=  2 ACTIVE CELLS=11979 NUMBER OF EQUATIONS=   11979
 
 SOLVING FOR HEAD 

 NO OUTPUT CONTROL FOR STRESS PERIOD    1   TIME STEP  119
 SOLVING FOR ZETA FOR LAYER     1 ZONE     2

    5934 UPPER PART EQS.      5931 LOWER PART EQS.    BAND WIDTH + 1 =  102
 STRESS PERIOD=  1 TIMESTEP=119 LAYER=  1 ZONE=  2 ACTIVE CELLS=11865 NUMBER OF EQUATIONS=   11865
 
 SOLVING FOR HEAD 

 OUTPUT CONTROL FOR STRESS PERIOD    1   TIME STEP  120
    SAVE HEAD FOR ALL LAYERS
    PRINT BUDGET
 SOLVING FOR ZETA FOR LAYER     1 ZONE     2

    5994 UPPER PART EQS.      5996 LOWER PART EQS.    BAND WIDTH + 1 =  102
 STRESS PERIOD=  1 TIMESTEP=120 LAYER=  1 ZONE=  2 ACTIVE CELLS=11990 NUMBER OF EQUATIONS=   11990
 UBUDSV SAVING "      ZETASRF  1" ON UNIT 55 AT TIME STEP120, STRESS PERIOD    1


                      VOLUMETRIC SWI ZONE BUDGET FOR ENTIRE MODEL
                     AT END OF TIME STEP  120 IN STRESS PERIOD   1
                                      ZONE     1
  -----------------------------------------------------------------------------------

        CUMULATIVE VOLUMES      L**3       RATES FOR THIS TIME STEP      L**3/T
        ------------------                 ------------------------

              IN:                                      IN:
              ---                                      ---
             BOUNDARIES = 36029116416.0000            BOUNDARIES =      822695.3750
          CONSTANT HEAD =           0.0000         CONSTANT HEAD =           0.0000
            ZONE CHANGE =  1655779712.0000           ZONE CHANGE =       50215.0625
       ZONE CHG TIP/TOE =    12668527.0000      ZONE CHG TIP/TOE =         129.1712
            ZONE MIXING =           0.0000           ZONE MIXING =           0.0000

               TOTAL IN = 37697564672.0000              TOTAL IN =      873039.6250

             OUT:                                     OUT:
             ----                                     ----
             BOUNDARIES =           0.0000            BOUNDARIES =           0.0000
          CONSTANT HEAD = 28743102464.0000         CONSTANT HEAD =      796713.4375
            ZONE CHANGE = 17887594496.0000           ZONE CHANGE =      266249.4062
       ZONE CHG TIP/TOE =     9488644.0000      ZONE CHG TIP/TOE =         119.3731
            ZONE MIXING =           0.0000           ZONE MIXING =           0.0000

              TOTAL OUT = 46640189440.0000             TOTAL OUT =     1063082.2500

               IN - OUT = -8942624768.0000              IN - OUT =     -190042.6250

    PERCENT DISCREPANCY =         -21.21     PERCENT DISCREPANCY =         -19.63



                      VOLUMETRIC SWI ZONE BUDGET FOR ENTIRE MODEL
                     AT END OF TIME STEP  120 IN STRESS PERIOD   1
                                      ZONE     2
  -----------------------------------------------------------------------------------

        CUMULATIVE VOLUMES      L**3       RATES FOR THIS TIME STEP      L**3/T
        ------------------                 ------------------------

              IN:                                      IN:
              ---                                      ---
             BOUNDARIES =    29594638.0000            BOUNDARIES =           0.0000
          CONSTANT HEAD =   185106768.0000         CONSTANT HEAD =        5480.5259
            ZONE CHANGE = 17887594496.0000           ZONE CHANGE =      266249.4062
       ZONE CHG TIP/TOE =  1639945472.0000      ZONE CHG TIP/TOE =       13967.4951
            ZONE MIXING =           0.0000           ZONE MIXING =           0.0000

               TOTAL IN = 19742242816.0000              TOTAL IN =      285697.4375

             OUT:                                     OUT:
             ----                                     ----
             BOUNDARIES =           0.0000            BOUNDARIES =           0.0000
          CONSTANT HEAD =  7500750848.0000         CONSTANT HEAD =       31462.4434
            ZONE CHANGE =  3286235392.0000           ZONE CHANGE =       64063.1836
       ZONE CHG TIP/TOE =    12668527.0000      ZONE CHG TIP/TOE =         129.1712
            ZONE MIXING =           0.0000           ZONE MIXING =           0.0000

              TOTAL OUT = 10799654912.0000             TOTAL OUT =       95654.7969

               IN - OUT =  8942587904.0000              IN - OUT =      190042.6406

    PERCENT DISCREPANCY =          58.56     PERCENT DISCREPANCY =          99.67


 HEAD WILL BE SAVED ON UNIT   51 AT END OF TIME STEP  120, STRESS PERIOD    1
1
  VOLUMETRIC BUDGET FOR ENTIRE MODEL AT END OF TIME STEP  120, STRESS PERIOD   1
  ------------------------------------------------------------------------------

     CUMULATIVE VOLUMES      L**3       RATES FOR THIS TIME STEP      L**3/T
     ------------------                 ------------------------

           IN:                                      IN:
           ---                                      ---
             STORAGE =           0.0000               STORAGE =           0.0000
       CONSTANT HEAD =  1258568832.0000         CONSTANT HEAD =          58.0590
          SWIADDTOCH =187443429376.0000            SWIADDTOCH =     5283448.0000
            RECHARGE = 36058710016.0000              RECHARGE =      822695.3750

            TOTAL IN =224760709120.0000              TOTAL IN =     6106201.5000

          OUT:                                     OUT:
          ----                                     ----
             STORAGE =           0.0000               STORAGE =           0.0000
       CONSTANT HEAD =223397527552.0000         CONSTANT HEAD =     6102571.5000
          SWIADDTOCH =  1363271168.0000            SWIADDTOCH =        3629.6716
            RECHARGE =           0.0000              RECHARGE =           0.0000

           TOTAL OUT =224760791040.0000             TOTAL OUT =     6106201.0000

            IN - OUT =      -81920.0000              IN - OUT =           0.5000

 PERCENT DISCREPANCY =          -0.00     PERCENT DISCREPANCY =           0.00






         TIME SUMMARY AT END OF TIME STEP  120 IN STRESS PERIOD    1
                    SECONDS     MINUTES      HOURS       DAYS        YEARS
                    -----------------------------------------------------------
   TIME STEP LENGTH 3.15576E+07 5.25960E+05  8766.0      365.25      1.0000    
 STRESS PERIOD TIME 3.78691E+09 6.31152E+07 1.05192E+06  43830.      120.00    
         TOTAL TIME 3.78691E+09 6.31152E+07 1.05192E+06  43830.      120.00    
1
 
 SOLVING FOR HEAD 

 NO OUTPUT CONTROL FOR STRESS PERIOD    1   TIME STEP  121
 SOLVING FOR ZETA FOR LAYER     1 ZONE     2

    5955 UPPER PART EQS.      5956 LOWER PART EQS.    BAND WIDTH + 1 =  106
 INSUFFICIENT MEMORY FOR DE4 SOLVER:
 MXBW MUST BE AT LEAST  106
 
 SOLVING FOR HEAD 

 NO OUTPUT CONTROL FOR STRESS PERIOD    1   TIME STEP  122
 SOLVING FOR ZETA FOR LAYER     1 ZONE     2

    6045 UPPER PART EQS.      6023 LOWER PART EQS.    BAND WIDTH + 1 =  104
 STRESS PERIOD=  1 TIMESTEP=122 LAYER=  1 ZONE=  2 ACTIVE CELLS=12068 NUMBER OF EQUATIONS=   12068
 
 SOLVING FOR HEAD 

 NO OUTPUT CONTROL FOR STRESS PERIOD    1   TIME STEP  123
 SOLVING FOR ZETA FOR LAYER     1 ZONE     2

    5945 UPPER PART EQS.      5947 LOWER PART EQS.    BAND WIDTH + 1 =  105
 STRESS PERIOD=  1 TIMESTEP=123 LAYER=  1 ZONE=  2 ACTIVE CELLS=11892 NUMBER OF EQUATIONS=   11892
 
 SOLVING FOR HEAD 

 NO OUTPUT CONTROL FOR STRESS PERIOD    1   TIME STEP  124
 SOLVING FOR ZETA FOR LAYER     1 ZONE     2

    6003 UPPER PART EQS.      6008 LOWER PART EQS.    BAND WIDTH + 1 =   97
 STRESS PERIOD=  1 TIMESTEP=124 LAYER=  1 ZONE=  2 ACTIVE CELLS=12011 NUMBER OF EQUATIONS=   12011
 
 SOLVING FOR HEAD 

 NO OUTPUT CONTROL FOR STRESS PERIOD    1   TIME STEP  125
 SOLVING FOR ZETA FOR LAYER     1 ZONE     2

    5990 UPPER PART EQS.      5961 LOWER PART EQS.    BAND WIDTH + 1 =  105
 STRESS PERIOD=  1 TIMESTEP=125 LAYER=  1 ZONE=  2 ACTIVE CELLS=11951 NUMBER OF EQUATIONS=   11951
 
 SOLVING FOR HEAD 

 NO OUTPUT CONTROL FOR STRESS PERIOD    1   TIME STEP  126
 SOLVING FOR ZETA FOR LAYER     1 ZONE     2

    5999 UPPER PART EQS.      6021 LOWER PART EQS.    BAND WIDTH + 1 =   97
 STRESS PERIOD=  1 TIMESTEP=126 LAYER=  1 ZONE=  2 ACTIVE CELLS=12020 NUMBER OF EQUATIONS=   12020
 
 SOLVING FOR HEAD 

 NO OUTPUT CONTROL FOR STRESS PERIOD    1   TIME STEP  127
 SOLVING FOR ZETA FOR LAYER     1 ZONE     2

    6001 UPPER PART EQS.      5976 LOWER PART EQS.    BAND WIDTH + 1 =  102
 STRESS PERIOD=  1 TIMESTEP=127 LAYER=  1 ZONE=  2 ACTIVE CELLS=11977 NUMBER OF EQUATIONS=   11977
 
 SOLVING FOR HEAD 

 NO OUTPUT CONTROL FOR STRESS PERIOD    1   TIME STEP  128
 SOLVING FOR ZETA FOR LAYER     1 ZONE     2

    6005 UPPER PART EQS.      6018 LOWER PART EQS.    BAND WIDTH + 1 =  101
 STRESS PERIOD=  1 TIMESTEP=128 LAYER=  1 ZONE=  2 ACTIVE CELLS=12023 NUMBER OF EQUATIONS=   12023
 
 SOLVING FOR HEAD 

 NO OUTPUT CONTROL FOR STRESS PERIOD    1   TIME STEP  129
 SOLVING FOR ZETA FOR LAYER     1 ZONE     2

    5996 UPPER PART EQS.      5978 LOWER PART EQS.    BAND WIDTH + 1 =   97
 STRESS PERIOD=  1 TIMESTEP=129 LAYER=  1 ZONE=  2 ACTIVE CELLS=11974 NUMBER OF EQUATIONS=   11974
 
 SOLVING FOR HEAD 

 NO OUTPUT CONTROL FOR STRESS PERIOD    1   TIME STEP  130
 SOLVING FOR ZETA FOR LAYER     1 ZONE     2

    6015 UPPER PART EQS.      6021 LOWER PART EQS.    BAND WIDTH + 1 =  100
 STRESS PERIOD=  1 TIMESTEP=130 LAYER=  1 ZONE=  2 ACTIVE CELLS=12036 NUMBER OF EQUATIONS=   12036
 
 SOLVING FOR HEAD 

 NO OUTPUT CONTROL FOR STRESS PERIOD    1   TIME STEP  131
 SOLVING FOR ZETA FOR LAYER     1 ZONE     2

    5996 UPPER PART EQS.      5979 LOWER PART EQS.    BAND WIDTH + 1 =   99
 STRESS PERIOD=  1 TIMESTEP=131 LAYER=  1 ZONE=  2 ACTIVE CELLS=11975 NUMBER OF EQUATIONS=   11975
 
 SOLVING FOR HEAD 

 NO OUTPUT CONTROL FOR STRESS PERIOD    1   TIME STEP  132
 SOLVING FOR ZETA FOR LAYER     1 ZONE     2

    6028 UPPER PART EQS.      6032 LOWER PART EQS.    BAND WIDTH + 1 =  105
 STRESS PERIOD=  1 TIMESTEP=132 LAYER=  1 ZONE=  2 ACTIVE CELLS=12060 NUMBER OF EQUATIONS=   12060
 
 SOLVING FOR HEAD 

 NO OUTPUT CONTROL FOR STRESS PERIOD    1   TIME STEP  133
 SOLVING FOR ZETA FOR LAYER     1 ZONE     2

    6015 UPPER PART EQS.      6003 LOWER PART EQS.    BAND WIDTH + 1 =  102
 STRESS PERIOD=  1 TIMESTEP=133 LAYER=  1 ZONE=  2 ACTIVE CELLS=12018 NUMBER OF EQUATIONS=   12018
 
 SOLVING FOR HEAD 

 NO OUTPUT CONTROL FOR STRESS PERIOD    1   TIME STEP  134
 SOLVING FOR ZETA FOR LAYER     1 ZONE     2

    6010 UPPER PART EQS.      6012 LOWER PART EQS.    BAND WIDTH + 1 =  112
 INSUFFICIENT MEMORY FOR DE4 SOLVER:
 MXBW MUST BE AT LEAST  112
 
 SOLVING FOR HEAD 

 NO OUTPUT CONTROL FOR STRESS PERIOD    1   TIME STEP  135
 SOLVING FOR ZETA FOR LAYER     1 ZONE     2

    6056 UPPER PART EQS.      6049 LOWER PART EQS.    BAND WIDTH + 1 =  104
 STRESS PERIOD=  1 TIMESTEP=135 LAYER=  1 ZONE=  2 ACTIVE CELLS=12105 NUMBER OF EQUATIONS=   12105
 
 SOLVING FOR HEAD 

 NO OUTPUT CONTROL FOR STRESS PERIOD    1   TIME STEP  136
 SOLVING FOR ZETA FOR LAYER     1 ZONE     2

    6007 UPPER PART EQS.      6011 LOWER PART EQS.    BAND WIDTH + 1 =  109
 INSUFFICIENT MEMORY FOR DE4 SOLVER:
 MXBW MUST BE AT LEAST  109
 
 SOLVING FOR HEAD 

 NO OUTPUT CONTROL FOR STRESS PERIOD    1   TIME STEP  137
 SOLVING FOR ZETA FOR LAYER     1 ZONE     2

    6071 UPPER PART EQS.      6067 LOWER PART EQS.    BAND WIDTH + 1 =  118
 INSUFFICIENT MEMORY FOR DE4 SOLVER:
 MXBW MUST BE AT LEAST  118
 
 SOLVING FOR HEAD 

 NO OUTPUT CONTROL FOR STRESS PERIOD    1   TIME STEP  138
 SOLVING FOR ZETA FOR LAYER     1 ZONE     2

    6109 UPPER PART EQS.      6109 LOWER PART EQS.    BAND WIDTH + 1 =  109
 INSUFFICIENT MEMORY FOR DE4 SOLVER:
 MXBW MUST BE AT LEAST  109
 
 SOLVING FOR HEAD 

 NO OUTPUT CONTROL FOR STRESS PERIOD    1   TIME STEP  139
 SOLVING FOR ZETA FOR LAYER     1 ZONE     2

    6124 UPPER PART EQS.      6119 LOWER PART EQS.    BAND WIDTH + 1 =  105
 STRESS PERIOD=  1 TIMESTEP=139 LAYER=  1 ZONE=  2 ACTIVE CELLS=12243 NUMBER OF EQUATIONS=   12243
 
 SOLVING FOR HEAD 

 OUTPUT CONTROL FOR STRESS PERIOD    1   TIME STEP  140
    SAVE HEAD FOR ALL LAYERS
    PRINT BUDGET
 SOLVING FOR ZETA FOR LAYER     1 ZONE     2

    5960 UPPER PART EQS.      5954 LOWER PART EQS.    BAND WIDTH + 1 =   97
 STRESS PERIOD=  1 TIMESTEP=140 LAYER=  1 ZONE=  2 ACTIVE CELLS=11914 NUMBER OF EQUATIONS=   11914
 UBUDSV SAVING "      ZETASRF  1" ON UNIT 55 AT TIME STEP140, STRESS PERIOD    1


                      VOLUMETRIC SWI ZONE BUDGET FOR ENTIRE MODEL
                     AT END OF TIME STEP  140 IN STRESS PERIOD   1
                                      ZONE     1
  -----------------------------------------------------------------------------------

        CUMULATIVE VOLUMES      L**3       RATES FOR THIS TIME STEP      L**3/T
        ------------------                 ------------------------

              IN:                                      IN:
              ---                                      ---
             BOUNDARIES = 42038931456.0000            BOUNDARIES =      822695.3750
          CONSTANT HEAD =           0.0000         CONSTANT HEAD =           0.0000
            ZONE CHANGE =  1846516608.0000           ZONE CHANGE =       16920.7695
       ZONE CHG TIP/TOE =    13713102.0000      ZONE CHG TIP/TOE =         209.2341
            ZONE MIXING =           0.0000           ZONE MIXING =           0.0000

               TOTAL IN = 43899162624.0000              TOTAL IN =      839825.3750

             OUT:                                     OUT:
             ----                                     ----
             BOUNDARIES =           0.0000            BOUNDARIES =           0.0000
          CONSTANT HEAD = 34497703936.0000         CONSTANT HEAD =      758127.6250
            ZONE CHANGE = 19297501184.0000           ZONE CHANGE =      266910.8125
       ZONE CHG TIP/TOE =    10352529.0000      ZONE CHG TIP/TOE =         163.2912
            ZONE MIXING =           0.0000           ZONE MIXING =           0.0000

              TOTAL OUT = 53805555712.0000             TOTAL OUT =     1025201.7500

               IN - OUT = -9906393088.0000              IN - OUT =     -185376.3750

    PERCENT DISCREPANCY =         -20.28     PERCENT DISCREPANCY =         -19.88



                      VOLUMETRIC SWI ZONE BUDGET FOR ENTIRE MODEL
                     AT END OF TIME STEP  140 IN STRESS PERIOD   1
                                      ZONE     2
  -----------------------------------------------------------------------------------

        CUMULATIVE VOLUMES      L**3       RATES FOR THIS TIME STEP      L**3/T
        ------------------                 ------------------------

              IN:                                      IN:
              ---                                      ---
             BOUNDARIES =    29594638.0000            BOUNDARIES =           0.0000
          CONSTANT HEAD =   227799296.0000         CONSTANT HEAD =        6072.8364
            ZONE CHANGE = 19297501184.0000           ZONE CHANGE =      266910.8125
       ZONE CHG TIP/TOE =  1692716672.0000      ZONE CHG TIP/TOE =        3419.9983
            ZONE MIXING =           0.0000           ZONE MIXING =           0.0000

               TOTAL IN = 21247612928.0000              TOTAL IN =      276403.6562

             OUT:                                     OUT:
             ----                                     ----
             BOUNDARIES =           0.0000            BOUNDARIES =           0.0000
          CONSTANT HEAD =  7798633984.0000         CONSTANT HEAD =       70640.6016
            ZONE CHANGE =  3528879872.0000           ZONE CHANGE =       20177.4766
       ZONE CHG TIP/TOE =    13713102.0000      ZONE CHG TIP/TOE =         209.2341
            ZONE MIXING =           0.0000           ZONE MIXING =           0.0000

              TOTAL OUT = 11341227008.0000             TOTAL OUT =       91027.3125

               IN - OUT =  9906385920.0000              IN - OUT =      185376.3438

    PERCENT DISCREPANCY =          60.80     PERCENT DISCREPANCY =         100.90


 HEAD WILL BE SAVED ON UNIT   51 AT END OF TIME STEP  140, STRESS PERIOD    1
1
  VOLUMETRIC BUDGET FOR ENTIRE MODEL AT END OF TIME STEP  140, STRESS PERIOD   1
  ------------------------------------------------------------------------------

     CUMULATIVE VOLUMES      L**3       RATES FOR THIS TIME STEP      L**3/T
     ------------------                 ------------------------

           IN:                                      IN:
           ---                                      ---
             STORAGE =           0.0000               STORAGE =           0.0000
       CONSTANT HEAD =  1258883584.0000         CONSTANT HEAD =          32.5446
          SWIADDTOCH =223821971456.0000            SWIADDTOCH =     4787087.0000
            RECHARGE = 42068525056.0000              RECHARGE =      822695.3750

            TOTAL IN =267149377536.0000              TOTAL IN =     5609815.0000

          OUT:                                     OUT:
          ----                                     ----
             STORAGE =           0.0000               STORAGE =           0.0000
       CONSTANT HEAD =265762177024.0000         CONSTANT HEAD =     5606737.0000
          SWIADDTOCH =  1387188352.0000            SWIADDTOCH =        3077.9426
            RECHARGE =           0.0000              RECHARGE =           0.0000

           TOTAL OUT =267149361152.0000             TOTAL OUT =     5609815.0000

            IN - OUT =       16384.0000              IN - OUT =           0.0000

 PERCENT DISCREPANCY =           0.00     PERCENT DISCREPANCY =           0.00






         TIME SUMMARY AT END OF TIME STEP  140 IN STRESS PERIOD    1
                    SECONDS     MINUTES      HOURS       DAYS        YEARS
                    -----------------------------------------------------------
   TIME STEP LENGTH 3.15576E+07 5.25960E+05  8766.0      365.25      1.0000    
 STRESS PERIOD TIME 4.41806E+09 7.36344E+07 1.22724E+06  51135.      140.00    
         TOTAL TIME 4.41806E+09 7.36344E+07 1.22724E+06  51135.      140.00    
1
 
 SOLVING FOR HEAD 

 NO OUTPUT CONTROL FOR STRESS PERIOD    1   TIME STEP  141
 SOLVING FOR ZETA FOR LAYER     1 ZONE     2

    6046 UPPER PART EQS.      6049 LOWER PART EQS.    BAND WIDTH + 1 =   99
 STRESS PERIOD=  1 TIMESTEP=141 LAYER=  1 ZONE=  2 ACTIVE CELLS=12095 NUMBER OF EQUATIONS=   12095
 
 SOLVING FOR HEAD 

 NO OUTPUT CONTROL FOR STRESS PERIOD    1   TIME STEP  142
 SOLVING FOR ZETA FOR LAYER     1 ZONE     2

    6022 UPPER PART EQS.      6003 LOWER PART EQS.    BAND WIDTH + 1 =  104
 STRESS PERIOD=  1 TIMESTEP=142 LAYER=  1 ZONE=  2 ACTIVE CELLS=12025 NUMBER OF EQUATIONS=   12025
 
 SOLVING FOR HEAD 

 NO OUTPUT CONTROL FOR STRESS PERIOD    1   TIME STEP  143
 SOLVING FOR ZETA FOR LAYER     1 ZONE     2

    6040 UPPER PART EQS.      6034 LOWER PART EQS.    BAND WIDTH + 1 =  102
 STRESS PERIOD=  1 TIMESTEP=143 LAYER=  1 ZONE=  2 ACTIVE CELLS=12074 NUMBER OF EQUATIONS=   12074
 
 SOLVING FOR HEAD 

 NO OUTPUT CONTROL FOR STRESS PERIOD    1   TIME STEP  144
 SOLVING FOR ZETA FOR LAYER     1 ZONE     2

    6015 UPPER PART EQS.      6009 LOWER PART EQS.    BAND WIDTH + 1 =   99
 STRESS PERIOD=  1 TIMESTEP=144 LAYER=  1 ZONE=  2 ACTIVE CELLS=12024 NUMBER OF EQUATIONS=   12024
 
 SOLVING FOR HEAD 

 NO OUTPUT CONTROL FOR STRESS PERIOD    1   TIME STEP  145
 SOLVING FOR ZETA FOR LAYER     1 ZONE     2

    6053 UPPER PART EQS.      6050 LOWER PART EQS.    BAND WIDTH + 1 =  102
 STRESS PERIOD=  1 TIMESTEP=145 LAYER=  1 ZONE=  2 ACTIVE CELLS=12103 NUMBER OF EQUATIONS=   12103
 
 SOLVING FOR HEAD 

 NO OUTPUT CONTROL FOR STRESS PERIOD    1   TIME STEP  146
 SOLVING FOR ZETA FOR LAYER     1 ZONE     2

    6013 UPPER PART EQS.      5999 LOWER PART EQS.    BAND WIDTH + 1 =  100
 STRESS PERIOD=  1 TIMESTEP=146 LAYER=  1 ZONE=  2 ACTIVE CELLS=12012 NUMBER OF EQUATIONS=   12012
 
 SOLVING FOR HEAD 

 NO OUTPUT CONTROL FOR STRESS PERIOD    1   TIME STEP  147
 SOLVING FOR ZETA FOR LAYER     1 ZONE     2

    6050 UPPER PART EQS.      6039 LOWER PART EQS.    BAND WIDTH + 1 =  101
 STRESS PERIOD=  1 TIMESTEP=147 LAYER=  1 ZONE=  2 ACTIVE CELLS=12089 NUMBER OF EQUATIONS=   12089
 
 SOLVING FOR HEAD 

 NO OUTPUT CONTROL FOR STRESS PERIOD    1   TIME STEP  148
 SOLVING FOR ZETA FOR LAYER     1 ZONE     2

    6022 UPPER PART EQS.      6023 LOWER PART EQS.    BAND WIDTH + 1 =  100
 STRESS PERIOD=  1 TIMESTEP=148 LAYER=  1 ZONE=  2 ACTIVE CELLS=12045 NUMBER OF EQUATIONS=   12045
 
 SOLVING FOR HEAD 

 NO OUTPUT CONTROL FOR STRESS PERIOD    1   TIME STEP  149
 SOLVING FOR ZETA FOR LAYER     1 ZONE     2

    6045 UPPER PART EQS.      6036 LOWER PART EQS.    BAND WIDTH + 1 =  106
 INSUFFICIENT MEMORY FOR DE4 SOLVER:
 MXBW MUST BE AT LEAST  106
 
 SOLVING FOR HEAD 

 NO OUTPUT CONTROL FOR STRESS PERIOD    1   TIME STEP  150
 SOLVING FOR ZETA FOR LAYER     1 ZONE     2

    6073 UPPER PART EQS.      6072 LOWER PART EQS.    BAND WIDTH + 1 =  103
 STRESS PERIOD=  1 TIMESTEP=150 LAYER=  1 ZONE=  2 ACTIVE CELLS=12145 NUMBER OF EQUATIONS=   12145
 
 SOLVING FOR HEAD 

 NO OUTPUT CONTROL FOR STRESS PERIOD    1   TIME STEP  151
 SOLVING FOR ZETA FOR LAYER     1 ZONE     2

    6042 UPPER PART EQS.      6030 LOWER PART EQS.    BAND WIDTH + 1 =  101
 STRESS PERIOD=  1 TIMESTEP=151 LAYER=  1 ZONE=  2 ACTIVE CELLS=12072 NUMBER OF EQUATIONS=   12072
 
 SOLVING FOR HEAD 

 NO OUTPUT CONTROL FOR STRESS PERIOD    1   TIME STEP  152
 SOLVING FOR ZETA FOR LAYER     1 ZONE     2

    6069 UPPER PART EQS.      6058 LOWER PART EQS.    BAND WIDTH + 1 =  101
 STRESS PERIOD=  1 TIMESTEP=152 LAYER=  1 ZONE=  2 ACTIVE CELLS=12127 NUMBER OF EQUATIONS=   12127
 
 SOLVING FOR HEAD 

 NO OUTPUT CONTROL FOR STRESS PERIOD    1   TIME STEP  153
 SOLVING FOR ZETA FOR LAYER     1 ZONE     2

    6029 UPPER PART EQS.      6033 LOWER PART EQS.    BAND WIDTH + 1 =  102
 STRESS PERIOD=  1 TIMESTEP=153 LAYER=  1 ZONE=  2 ACTIVE CELLS=12062 NUMBER OF EQUATIONS=   12062
 
 SOLVING FOR HEAD 

 NO OUTPUT CONTROL FOR STRESS PERIOD    1   TIME STEP  154
 SOLVING FOR ZETA FOR LAYER     1 ZONE     2

    6068 UPPER PART EQS.      6053 LOWER PART EQS.    BAND WIDTH + 1 =  101
 STRESS PERIOD=  1 TIMESTEP=154 LAYER=  1 ZONE=  2 ACTIVE CELLS=12121 NUMBER OF EQUATIONS=   12121
 
 SOLVING FOR HEAD 

 NO OUTPUT CONTROL FOR STRESS PERIOD    1   TIME STEP  155
 SOLVING FOR ZETA FOR LAYER     1 ZONE     2

    6030 UPPER PART EQS.      6035 LOWER PART EQS.    BAND WIDTH + 1 =  102
 STRESS PERIOD=  1 TIMESTEP=155 LAYER=  1 ZONE=  2 ACTIVE CELLS=12065 NUMBER OF EQUATIONS=   12065
 
 SOLVING FOR HEAD 

 NO OUTPUT CONTROL FOR STRESS PERIOD    1   TIME STEP  156
 SOLVING FOR ZETA FOR LAYER     1 ZONE     2

    6062 UPPER PART EQS.      6055 LOWER PART EQS.    BAND WIDTH + 1 =  101
 STRESS PERIOD=  1 TIMESTEP=156 LAYER=  1 ZONE=  2 ACTIVE CELLS=12117 NUMBER OF EQUATIONS=   12117
 
 SOLVING FOR HEAD 

 NO OUTPUT CONTROL FOR STRESS PERIOD    1   TIME STEP  157
 SOLVING FOR ZETA FOR LAYER     1 ZONE     2

    6051 UPPER PART EQS.      6047 LOWER PART EQS.    BAND WIDTH + 1 =  100
 STRESS PERIOD=  1 TIMESTEP=157 LAYER=  1 ZONE=  2 ACTIVE CELLS=12098 NUMBER OF EQUATIONS=   12098
 
 SOLVING FOR HEAD 

 NO OUTPUT CONTROL FOR STRESS PERIOD    1   TIME STEP  158
 SOLVING FOR ZETA FOR LAYER     1 ZONE     2

    6059 UPPER PART EQS.      6056 LOWER PART EQS.    BAND WIDTH + 1 =  100
 STRESS PERIOD=  1 TIMESTEP=158 LAYER=  1 ZONE=  2 ACTIVE CELLS=12115 NUMBER OF EQUATIONS=   12115
 
 SOLVING FOR HEAD 

 NO OUTPUT CONTROL FOR STRESS PERIOD    1   TIME STEP  159
 SOLVING FOR ZETA FOR LAYER     1 ZONE     2

    6044 UPPER PART EQS.      6040 LOWER PART EQS.    BAND WIDTH + 1 =   99
 STRESS PERIOD=  1 TIMESTEP=159 LAYER=  1 ZONE=  2 ACTIVE CELLS=12084 NUMBER OF EQUATIONS=   12084
 
 SOLVING FOR HEAD 

 OUTPUT CONTROL FOR STRESS PERIOD    1   TIME STEP  160
    SAVE HEAD FOR ALL LAYERS
    PRINT BUDGET
 SOLVING FOR ZETA FOR LAYER     1 ZONE     2

    6068 UPPER PART EQS.      6064 LOWER PART EQS.    BAND WIDTH + 1 =  100
 STRESS PERIOD=  1 TIMESTEP=160 LAYER=  1 ZONE=  2 ACTIVE CELLS=12132 NUMBER OF EQUATIONS=   12132
 UBUDSV SAVING "      ZETASRF  1" ON UNIT 55 AT TIME STEP160, STRESS PERIOD    1


                      VOLUMETRIC SWI ZONE BUDGET FOR ENTIRE MODEL
                     AT END OF TIME STEP  160 IN STRESS PERIOD   1
                                      ZONE     1
  -----------------------------------------------------------------------------------

        CUMULATIVE VOLUMES      L**3       RATES FOR THIS TIME STEP      L**3/T
        ------------------                 ------------------------

              IN:                                      IN:
              ---                                      ---
             BOUNDARIES = 48048746496.0000            BOUNDARIES =      822695.3750
          CONSTANT HEAD =           0.0000         CONSTANT HEAD =           0.0000
            ZONE CHANGE =  2021528704.0000           ZONE CHANGE =       20237.3652
       ZONE CHG TIP/TOE =    14552534.0000      ZONE CHG TIP/TOE =          91.2325
            ZONE MIXING =           0.0000           ZONE MIXING =           0.0000

               TOTAL IN = 50084827136.0000              TOTAL IN =      843024.0000

             OUT:                                     OUT:
             ----                                     ----
             BOUNDARIES =           0.0000            BOUNDARIES =           0.0000
          CONSTANT HEAD = 40343269376.0000         CONSTANT HEAD =      803865.4375
            ZONE CHANGE = 20753473536.0000           ZONE CHANGE =      189531.1406
       ZONE CHG TIP/TOE =    11095958.0000      ZONE CHG TIP/TOE =          86.3775
            ZONE MIXING =           0.0000           ZONE MIXING =           0.0000

              TOTAL OUT = 61107838976.0000             TOTAL OUT =      993482.9375

               IN - OUT =-11023011840.0000              IN - OUT =     -150458.9375

    PERCENT DISCREPANCY =         -19.83     PERCENT DISCREPANCY =         -16.39



                      VOLUMETRIC SWI ZONE BUDGET FOR ENTIRE MODEL
                     AT END OF TIME STEP  160 IN STRESS PERIOD   1
                                      ZONE     2
  -----------------------------------------------------------------------------------

        CUMULATIVE VOLUMES      L**3       RATES FOR THIS TIME STEP      L**3/T
        ------------------                 ------------------------

              IN:                                      IN:
              ---                                      ---
             BOUNDARIES =    29594638.0000            BOUNDARIES =           0.0000
          CONSTANT HEAD =   272750048.0000         CONSTANT HEAD =        6209.2178
            ZONE CHANGE = 20753473536.0000           ZONE CHANGE =      189531.1406
       ZONE CHG TIP/TOE =  1732443520.0000      ZONE CHG TIP/TOE =        5203.2271
            ZONE MIXING =           0.0000           ZONE MIXING =           0.0000

               TOTAL IN = 22788261888.0000              TOTAL IN =      200943.5938

             OUT:                                     OUT:
             ----                                     ----
             BOUNDARIES =           0.0000            BOUNDARIES =           0.0000
          CONSTANT HEAD =  8007817728.0000         CONSTANT HEAD =       25039.1914
            ZONE CHANGE =  3742875392.0000           ZONE CHANGE =       25354.2148
       ZONE CHG TIP/TOE =    14552534.0000      ZONE CHG TIP/TOE =          91.2325
            ZONE MIXING =           0.0000           ZONE MIXING =           0.0000

              TOTAL OUT = 11765244928.0000             TOTAL OUT =       50484.6406

               IN - OUT = 11023016960.0000              IN - OUT =      150458.9531

    PERCENT DISCREPANCY =          63.80     PERCENT DISCREPANCY =         119.68


 HEAD WILL BE SAVED ON UNIT   51 AT END OF TIME STEP  160, STRESS PERIOD    1
1
  VOLUMETRIC BUDGET FOR ENTIRE MODEL AT END OF TIME STEP  160, STRESS PERIOD   1
  ------------------------------------------------------------------------------

     CUMULATIVE VOLUMES      L**3       RATES FOR THIS TIME STEP      L**3/T
     ------------------                 ------------------------

           IN:                                      IN:
           ---                                      ---
             STORAGE =           0.0000               STORAGE =           0.0000
       CONSTANT HEAD =  1259013504.0000         CONSTANT HEAD =           5.5055
          SWIADDTOCH =256975011840.0000            SWIADDTOCH =     4332259.0000
            RECHARGE = 48078340096.0000              RECHARGE =      822695.3750

            TOTAL IN =306312380416.0000              TOTAL IN =     5154960.0000

          OUT:                                     OUT:
          ----                                     ----
             STORAGE =           0.0000               STORAGE =           0.0000
       CONSTANT HEAD =304904765440.0000         CONSTANT HEAD =     5152418.0000
          SWIADDTOCH =  1407559296.0000            SWIADDTOCH =        2541.6851
            RECHARGE =           0.0000              RECHARGE =           0.0000

           TOTAL OUT =306312314880.0000             TOTAL OUT =     5154959.5000

            IN - OUT =       65536.0000              IN - OUT =           0.5000

 PERCENT DISCREPANCY =           0.00     PERCENT DISCREPANCY =           0.00






         TIME SUMMARY AT END OF TIME STEP  160 IN STRESS PERIOD    1
                    SECONDS     MINUTES      HOURS       DAYS        YEARS
                    -----------------------------------------------------------
   TIME STEP LENGTH 3.15576E+07 5.25960E+05  8766.0      365.25      1.0000    
 STRESS PERIOD TIME 5.04922E+09 8.41536E+07 1.40256E+06  58440.      160.00    
         TOTAL TIME 5.04922E+09 8.41536E+07 1.40256E+06  58440.      160.00    
1
 
 SOLVING FOR HEAD 

 NO OUTPUT CONTROL FOR STRESS PERIOD    1   TIME STEP  161
 SOLVING FOR ZETA FOR LAYER     1 ZONE     2

    6050 UPPER PART EQS.      6052 LOWER PART EQS.    BAND WIDTH + 1 =  104
 STRESS PERIOD=  1 TIMESTEP=161 LAYER=  1 ZONE=  2 ACTIVE CELLS=12102 NUMBER OF EQUATIONS=   12102
 
 SOLVING FOR HEAD 

 NO OUTPUT CONTROL FOR STRESS PERIOD    1   TIME STEP  162
 SOLVING FOR ZETA FOR LAYER     1 ZONE     2

    6050 UPPER PART EQS.      6051 LOWER PART EQS.    BAND WIDTH + 1 =  100
 STRESS PERIOD=  1 TIMESTEP=162 LAYER=  1 ZONE=  2 ACTIVE CELLS=12101 NUMBER OF EQUATIONS=   12101
 
 SOLVING FOR HEAD 

 NO OUTPUT CONTROL FOR STRESS PERIOD    1   TIME STEP  163
 SOLVING FOR ZETA FOR LAYER     1 ZONE     2

    6062 UPPER PART EQS.      6052 LOWER PART EQS.    BAND WIDTH + 1 =   99
 STRESS PERIOD=  1 TIMESTEP=163 LAYER=  1 ZONE=  2 ACTIVE CELLS=12114 NUMBER OF EQUATIONS=   12114
 
 SOLVING FOR HEAD 

 NO OUTPUT CONTROL FOR STRESS PERIOD    1   TIME STEP  164
 SOLVING FOR ZETA FOR LAYER     1 ZONE     2

    6057 UPPER PART EQS.      6063 LOWER PART EQS.    BAND WIDTH + 1 =  102
 STRESS PERIOD=  1 TIMESTEP=164 LAYER=  1 ZONE=  2 ACTIVE CELLS=12120 NUMBER OF EQUATIONS=   12120
 
 SOLVING FOR HEAD 

 NO OUTPUT CONTROL FOR STRESS PERIOD    1   TIME STEP  165
 SOLVING FOR ZETA FOR LAYER     1 ZONE     2

    6058 UPPER PART EQS.      6054 LOWER PART EQS.    BAND WIDTH + 1 =   99
 STRESS PERIOD=  1 TIMESTEP=165 LAYER=  1 ZONE=  2 ACTIVE CELLS=12112 NUMBER OF EQUATIONS=   12112
 
 SOLVING FOR HEAD 

 NO OUTPUT CONTROL FOR STRESS PERIOD    1   TIME STEP  166
 SOLVING FOR ZETA FOR LAYER     1 ZONE     2

    6075 UPPER PART EQS.      6074 LOWER PART EQS.    BAND WIDTH + 1 =   99
 STRESS PERIOD=  1 TIMESTEP=166 LAYER=  1 ZONE=  2 ACTIVE CELLS=12149 NUMBER OF EQUATIONS=   12149
 
 SOLVING FOR HEAD 

 NO OUTPUT CONTROL FOR STRESS PERIOD    1   TIME STEP  167
 SOLVING FOR ZETA FOR LAYER     1 ZONE     2

    6076 UPPER PART EQS.      6067 LOWER PART EQS.    BAND WIDTH + 1 =  100
 STRESS PERIOD=  1 TIMESTEP=167 LAYER=  1 ZONE=  2 ACTIVE CELLS=12143 NUMBER OF EQUATIONS=   12143
 
 SOLVING FOR HEAD 

 NO OUTPUT CONTROL FOR STRESS PERIOD    1   TIME STEP  168
 SOLVING FOR ZETA FOR LAYER     1 ZONE     2

    6061 UPPER PART EQS.      6062 LOWER PART EQS.    BAND WIDTH + 1 =   96
 STRESS PERIOD=  1 TIMESTEP=168 LAYER=  1 ZONE=  2 ACTIVE CELLS=12123 NUMBER OF EQUATIONS=   12123
 
 SOLVING FOR HEAD 

 NO OUTPUT CONTROL FOR STRESS PERIOD    1   TIME STEP  169
 SOLVING FOR ZETA FOR LAYER     1 ZONE     2

    6083 UPPER PART EQS.      6070 LOWER PART EQS.    BAND WIDTH + 1 =  100
 STRESS PERIOD=  1 TIMESTEP=169 LAYER=  1 ZONE=  2 ACTIVE CELLS=12153 NUMBER OF EQUATIONS=   12153
 
 SOLVING FOR HEAD 

 NO OUTPUT CONTROL FOR STRESS PERIOD    1   TIME STEP  170
 SOLVING FOR ZETA FOR LAYER     1 ZONE     2

    6068 UPPER PART EQS.      6069 LOWER PART EQS.    BAND WIDTH + 1 =   99
 STRESS PERIOD=  1 TIMESTEP=170 LAYER=  1 ZONE=  2 ACTIVE CELLS=12137 NUMBER OF EQUATIONS=   12137
 
 SOLVING FOR HEAD 

 NO OUTPUT CONTROL FOR STRESS PERIOD    1   TIME STEP  171
 SOLVING FOR ZETA FOR LAYER     1 ZONE     2

    6065 UPPER PART EQS.      6070 LOWER PART EQS.    BAND WIDTH + 1 =  100
 STRESS PERIOD=  1 TIMESTEP=171 LAYER=  1 ZONE=  2 ACTIVE CELLS=12135 NUMBER OF EQUATIONS=   12135
 
 SOLVING FOR HEAD 

 NO OUTPUT CONTROL FOR STRESS PERIOD    1   TIME STEP  172
 SOLVING FOR ZETA FOR LAYER     1 ZONE     2

    6088 UPPER PART EQS.      6079 LOWER PART EQS.    BAND WIDTH + 1 =   98
 STRESS PERIOD=  1 TIMESTEP=172 LAYER=  1 ZONE=  2 ACTIVE CELLS=12167 NUMBER OF EQUATIONS=   12167
 
 SOLVING FOR HEAD 

 NO OUTPUT CONTROL FOR STRESS PERIOD    1   TIME STEP  173
 SOLVING FOR ZETA FOR LAYER     1 ZONE     2

    6075 UPPER PART EQS.      6062 LOWER PART EQS.    BAND WIDTH + 1 =   98
 STRESS PERIOD=  1 TIMESTEP=173 LAYER=  1 ZONE=  2 ACTIVE CELLS=12137 NUMBER OF EQUATIONS=   12137
 
 SOLVING FOR HEAD 

 NO OUTPUT CONTROL FOR STRESS PERIOD    1   TIME STEP  174
 SOLVING FOR ZETA FOR LAYER     1 ZONE     2

    6070 UPPER PART EQS.      6064 LOWER PART EQS.    BAND WIDTH + 1 =  100
 STRESS PERIOD=  1 TIMESTEP=174 LAYER=  1 ZONE=  2 ACTIVE CELLS=12134 NUMBER OF EQUATIONS=   12134
 
 SOLVING FOR HEAD 

 NO OUTPUT CONTROL FOR STRESS PERIOD    1   TIME STEP  175
 SOLVING FOR ZETA FOR LAYER     1 ZONE     2

    6078 UPPER PART EQS.      6069 LOWER PART EQS.    BAND WIDTH + 1 =   99
 STRESS PERIOD=  1 TIMESTEP=175 LAYER=  1 ZONE=  2 ACTIVE CELLS=12147 NUMBER OF EQUATIONS=   12147
 
 SOLVING FOR HEAD 

 NO OUTPUT CONTROL FOR STRESS PERIOD    1   TIME STEP  176
 SOLVING FOR ZETA FOR LAYER     1 ZONE     2

    6083 UPPER PART EQS.      6073 LOWER PART EQS.    BAND WIDTH + 1 =  103
 STRESS PERIOD=  1 TIMESTEP=176 LAYER=  1 ZONE=  2 ACTIVE CELLS=12156 NUMBER OF EQUATIONS=   12156
 
 SOLVING FOR HEAD 

 NO OUTPUT CONTROL FOR STRESS PERIOD    1   TIME STEP  177
 SOLVING FOR ZETA FOR LAYER     1 ZONE     2

    6077 UPPER PART EQS.      6076 LOWER PART EQS.    BAND WIDTH + 1 =  104
 STRESS PERIOD=  1 TIMESTEP=177 LAYER=  1 ZONE=  2 ACTIVE CELLS=12153 NUMBER OF EQUATIONS=   12153
 
 SOLVING FOR HEAD 

 NO OUTPUT CONTROL FOR STRESS PERIOD    1   TIME STEP  178
 SOLVING FOR ZETA FOR LAYER     1 ZONE     2

    6084 UPPER PART EQS.      6078 LOWER PART EQS.    BAND WIDTH + 1 =  101
 STRESS PERIOD=  1 TIMESTEP=178 LAYER=  1 ZONE=  2 ACTIVE CELLS=12162 NUMBER OF EQUATIONS=   12162
 
 SOLVING FOR HEAD 

 NO OUTPUT CONTROL FOR STRESS PERIOD    1   TIME STEP  179
 SOLVING FOR ZETA FOR LAYER     1 ZONE     2

    6074 UPPER PART EQS.      6075 LOWER PART EQS.    BAND WIDTH + 1 =  102
 STRESS PERIOD=  1 TIMESTEP=179 LAYER=  1 ZONE=  2 ACTIVE CELLS=12149 NUMBER OF EQUATIONS=   12149
 
 SOLVING FOR HEAD 

 OUTPUT CONTROL FOR STRESS PERIOD    1   TIME STEP  180
    SAVE HEAD FOR ALL LAYERS
    PRINT BUDGET
 SOLVING FOR ZETA FOR LAYER     1 ZONE     2

    6086 UPPER PART EQS.      6076 LOWER PART EQS.    BAND WIDTH + 1 =  104
 STRESS PERIOD=  1 TIMESTEP=180 LAYER=  1 ZONE=  2 ACTIVE CELLS=12162 NUMBER OF EQUATIONS=   12162
 UBUDSV SAVING "      ZETASRF  1" ON UNIT 55 AT TIME STEP180, STRESS PERIOD    1


                      VOLUMETRIC SWI ZONE BUDGET FOR ENTIRE MODEL
                     AT END OF TIME STEP  180 IN STRESS PERIOD   1
                                      ZONE     1
  -----------------------------------------------------------------------------------

        CUMULATIVE VOLUMES      L**3       RATES FOR THIS TIME STEP      L**3/T
        ------------------                 ------------------------

              IN:                                      IN:
              ---                                      ---
             BOUNDARIES = 54058561536.0000            BOUNDARIES =      822695.3750
          CONSTANT HEAD =           0.0000         CONSTANT HEAD =           0.0000
            ZONE CHANGE =  2155660032.0000           ZONE CHANGE =       14625.2031
       ZONE CHG TIP/TOE =    15252444.0000      ZONE CHG TIP/TOE =          87.1439
            ZONE MIXING =           0.0000           ZONE MIXING =           0.0000

               TOTAL IN = 56229474304.0000              TOTAL IN =      837407.6875

             OUT:                                     OUT:
             ----                                     ----
             BOUNDARIES =           0.0000            BOUNDARIES =           0.0000
          CONSTANT HEAD = 46271987712.0000         CONSTANT HEAD =      818044.7500
            ZONE CHANGE = 22011697152.0000           ZONE CHANGE =      154243.3438
       ZONE CHG TIP/TOE =    11731224.0000      ZONE CHG TIP/TOE =          75.1167
            ZONE MIXING =           0.0000           ZONE MIXING =           0.0000

              TOTAL OUT = 68295417856.0000             TOTAL OUT =      972363.2500

               IN - OUT =-12065943552.0000              IN - OUT =     -134955.5625

    PERCENT DISCREPANCY =         -19.38     PERCENT DISCREPANCY =         -14.91



                      VOLUMETRIC SWI ZONE BUDGET FOR ENTIRE MODEL
                     AT END OF TIME STEP  180 IN STRESS PERIOD   1
                                      ZONE     2
  -----------------------------------------------------------------------------------

        CUMULATIVE VOLUMES      L**3       RATES FOR THIS TIME STEP      L**3/T
        ------------------                 ------------------------

              IN:                                      IN:
              ---                                      ---
             BOUNDARIES =    29594638.0000            BOUNDARIES =           0.0000
          CONSTANT HEAD =   318551936.0000         CONSTANT HEAD =        6170.0640
            ZONE CHANGE = 22011697152.0000           ZONE CHANGE =      154243.3438
       ZONE CHG TIP/TOE =  1758445440.0000      ZONE CHG TIP/TOE =        2843.1482
            ZONE MIXING =           0.0000           ZONE MIXING =           0.0000

               TOTAL IN = 24118288384.0000              TOTAL IN =      163256.5469

             OUT:                                     OUT:
             ----                                     ----
             BOUNDARIES =           0.0000            BOUNDARIES =           0.0000
          CONSTANT HEAD =  8134693376.0000         CONSTANT HEAD =       10820.7031
            ZONE CHANGE =  3902373888.0000           ZONE CHANGE =       17393.2344
       ZONE CHG TIP/TOE =    15252444.0000      ZONE CHG TIP/TOE =          87.1439
            ZONE MIXING =           0.0000           ZONE MIXING =           0.0000

              TOTAL OUT = 12052319232.0000             TOTAL OUT =       28301.0820

               IN - OUT = 12065969152.0000              IN - OUT =      134955.4688

    PERCENT DISCREPANCY =          66.72     PERCENT DISCREPANCY =         140.90


 HEAD WILL BE SAVED ON UNIT   51 AT END OF TIME STEP  180, STRESS PERIOD    1
1
  VOLUMETRIC BUDGET FOR ENTIRE MODEL AT END OF TIME STEP  180, STRESS PERIOD   1
  ------------------------------------------------------------------------------

     CUMULATIVE VOLUMES      L**3       RATES FOR THIS TIME STEP      L**3/T
     ------------------                 ------------------------

           IN:                                      IN:
           ---                                      ---
             STORAGE =           0.0000               STORAGE =           0.0000
       CONSTANT HEAD =  1259017088.0000         CONSTANT HEAD =           0.0000
          SWIADDTOCH =287342985216.0000            SWIADDTOCH =     4003952.2500
            RECHARGE = 54088155136.0000              RECHARGE =      822695.3750

            TOTAL IN =342690168832.0000              TOTAL IN =     4826647.5000

          OUT:                                     OUT:
          ----                                     ----
             STORAGE =           0.0000               STORAGE =           0.0000
       CONSTANT HEAD =341263220736.0000         CONSTANT HEAD =     4824112.0000
          SWIADDTOCH =  1426814464.0000            SWIADDTOCH =        2535.5891
            RECHARGE =           0.0000              RECHARGE =           0.0000

           TOTAL OUT =342690037760.0000             TOTAL OUT =     4826647.5000

            IN - OUT =      131072.0000              IN - OUT =           0.0000

 PERCENT DISCREPANCY =           0.00     PERCENT DISCREPANCY =           0.00






         TIME SUMMARY AT END OF TIME STEP  180 IN STRESS PERIOD    1
                    SECONDS     MINUTES      HOURS       DAYS        YEARS
                    -----------------------------------------------------------
   TIME STEP LENGTH 3.15576E+07 5.25960E+05  8766.0      365.25      1.0000    
 STRESS PERIOD TIME 5.68037E+09 9.46728E+07 1.57788E+06  65745.      180.00    
         TOTAL TIME 5.68037E+09 9.46728E+07 1.57788E+06  65745.      180.00    
1
 
 SOLVING FOR HEAD 

 NO OUTPUT CONTROL FOR STRESS PERIOD    1   TIME STEP  181
 SOLVING FOR ZETA FOR LAYER     1 ZONE     2

    6085 UPPER PART EQS.      6081 LOWER PART EQS.    BAND WIDTH + 1 =  103
 STRESS PERIOD=  1 TIMESTEP=181 LAYER=  1 ZONE=  2 ACTIVE CELLS=12166 NUMBER OF EQUATIONS=   12166
 
 SOLVING FOR HEAD 

 NO OUTPUT CONTROL FOR STRESS PERIOD    1   TIME STEP  182
 SOLVING FOR ZETA FOR LAYER     1 ZONE     2

    6089 UPPER PART EQS.      6074 LOWER PART EQS.    BAND WIDTH + 1 =  107
 INSUFFICIENT MEMORY FOR DE4 SOLVER:
 MXBW MUST BE AT LEAST  107
 
 SOLVING FOR HEAD 

 NO OUTPUT CONTROL FOR STRESS PERIOD    1   TIME STEP  183
 SOLVING FOR ZETA FOR LAYER     1 ZONE     2

    6114 UPPER PART EQS.      6120 LOWER PART EQS.    BAND WIDTH + 1 =  104
 STRESS PERIOD=  1 TIMESTEP=183 LAYER=  1 ZONE=  2 ACTIVE CELLS=12234 NUMBER OF EQUATIONS=   12234
 
 SOLVING FOR HEAD 

 NO OUTPUT CONTROL FOR STRESS PERIOD    1   TIME STEP  184
 SOLVING FOR ZETA FOR LAYER     1 ZONE     2

    6081 UPPER PART EQS.      6062 LOWER PART EQS.    BAND WIDTH + 1 =  105
 STRESS PERIOD=  1 TIMESTEP=184 LAYER=  1 ZONE=  2 ACTIVE CELLS=12143 NUMBER OF EQUATIONS=   12143
 
 SOLVING FOR HEAD 

 NO OUTPUT CONTROL FOR STRESS PERIOD    1   TIME STEP  185
 SOLVING FOR ZETA FOR LAYER     1 ZONE     2

    6097 UPPER PART EQS.      6107 LOWER PART EQS.    BAND WIDTH + 1 =  105
 STRESS PERIOD=  1 TIMESTEP=185 LAYER=  1 ZONE=  2 ACTIVE CELLS=12204 NUMBER OF EQUATIONS=   12204
 
 SOLVING FOR HEAD 

 NO OUTPUT CONTROL FOR STRESS PERIOD    1   TIME STEP  186
 SOLVING FOR ZETA FOR LAYER     1 ZONE     2

    6090 UPPER PART EQS.      6074 LOWER PART EQS.    BAND WIDTH + 1 =  106
 INSUFFICIENT MEMORY FOR DE4 SOLVER:
 MXBW MUST BE AT LEAST  106
 
 SOLVING FOR HEAD 

 NO OUTPUT CONTROL FOR STRESS PERIOD    1   TIME STEP  187
 SOLVING FOR ZETA FOR LAYER     1 ZONE     2

    6119 UPPER PART EQS.      6130 LOWER PART EQS.    BAND WIDTH + 1 =  107
 INSUFFICIENT MEMORY FOR DE4 SOLVER:
 MXBW MUST BE AT LEAST  107
 
 SOLVING FOR HEAD 

 NO OUTPUT CONTROL FOR STRESS PERIOD    1   TIME STEP  188
 SOLVING FOR ZETA FOR LAYER     1 ZONE     2

    6153 UPPER PART EQS.      6129 LOWER PART EQS.    BAND WIDTH + 1 =  105
 STRESS PERIOD=  1 TIMESTEP=188 LAYER=  1 ZONE=  2 ACTIVE CELLS=12282 NUMBER OF EQUATIONS=   12282
 
 SOLVING FOR HEAD 

 NO OUTPUT CONTROL FOR STRESS PERIOD    1   TIME STEP  189
 SOLVING FOR ZETA FOR LAYER     1 ZONE     2

    6060 UPPER PART EQS.      6073 LOWER PART EQS.    BAND WIDTH + 1 =  102
 STRESS PERIOD=  1 TIMESTEP=189 LAYER=  1 ZONE=  2 ACTIVE CELLS=12133 NUMBER OF EQUATIONS=   12133
 
 SOLVING FOR HEAD 

 NO OUTPUT CONTROL FOR STRESS PERIOD    1   TIME STEP  190
 SOLVING FOR ZETA FOR LAYER     1 ZONE     2

    6117 UPPER PART EQS.      6092 LOWER PART EQS.    BAND WIDTH + 1 =  106
 INSUFFICIENT MEMORY FOR DE4 SOLVER:
 MXBW MUST BE AT LEAST  106
 
 SOLVING FOR HEAD 

 NO OUTPUT CONTROL FOR STRESS PERIOD    1   TIME STEP  191
 SOLVING FOR ZETA FOR LAYER     1 ZONE     2

    6122 UPPER PART EQS.      6129 LOWER PART EQS.    BAND WIDTH + 1 =  105
 STRESS PERIOD=  1 TIMESTEP=191 LAYER=  1 ZONE=  2 ACTIVE CELLS=12251 NUMBER OF EQUATIONS=   12251
 
 SOLVING FOR HEAD 

 NO OUTPUT CONTROL FOR STRESS PERIOD    1   TIME STEP  192
 SOLVING FOR ZETA FOR LAYER     1 ZONE     2

    6096 UPPER PART EQS.      6067 LOWER PART EQS.    BAND WIDTH + 1 =  107
 INSUFFICIENT MEMORY FOR DE4 SOLVER:
 MXBW MUST BE AT LEAST  107
 
 SOLVING FOR HEAD 

 NO OUTPUT CONTROL FOR STRESS PERIOD    1   TIME STEP  193
 SOLVING FOR ZETA FOR LAYER     1 ZONE     2

    6118 UPPER PART EQS.      6137 LOWER PART EQS.    BAND WIDTH + 1 =  111
 INSUFFICIENT MEMORY FOR DE4 SOLVER:
 MXBW MUST BE AT LEAST  111
 
 SOLVING FOR HEAD 

 NO OUTPUT CONTROL FOR STRESS PERIOD    1   TIME STEP  194
 SOLVING FOR ZETA FOR LAYER     1 ZONE     2

    6168 UPPER PART EQS.      6127 LOWER PART EQS.    BAND WIDTH + 1 =  117
 INSUFFICIENT MEMORY FOR DE4 SOLVER:
 MXBW MUST BE AT LEAST  117
 
 SOLVING FOR HEAD 

 NO OUTPUT CONTROL FOR STRESS PERIOD    1   TIME STEP  195
 SOLVING FOR ZETA FOR LAYER     1 ZONE     2

    6153 UPPER PART EQS.      6161 LOWER PART EQS.    BAND WIDTH + 1 =  104
 STRESS PERIOD=  1 TIMESTEP=195 LAYER=  1 ZONE=  2 ACTIVE CELLS=12314 NUMBER OF EQUATIONS=   12314
 
 SOLVING FOR HEAD 

 NO OUTPUT CONTROL FOR STRESS PERIOD    1   TIME STEP  196
 SOLVING FOR ZETA FOR LAYER     1 ZONE     2

    6064 UPPER PART EQS.      6037 LOWER PART EQS.    BAND WIDTH + 1 =  112
 INSUFFICIENT MEMORY FOR DE4 SOLVER:
 MXBW MUST BE AT LEAST  112
 
 SOLVING FOR HEAD 

 NO OUTPUT CONTROL FOR STRESS PERIOD    1   TIME STEP  197
 SOLVING FOR ZETA FOR LAYER     1 ZONE     2

    6094 UPPER PART EQS.      6119 LOWER PART EQS.    BAND WIDTH + 1 =  108
 INSUFFICIENT MEMORY FOR DE4 SOLVER:
 MXBW MUST BE AT LEAST  108
 
 SOLVING FOR HEAD 

 NO OUTPUT CONTROL FOR STRESS PERIOD    1   TIME STEP  198
 SOLVING FOR ZETA FOR LAYER     1 ZONE     2

    6136 UPPER PART EQS.      6097 LOWER PART EQS.    BAND WIDTH + 1 =  115
 INSUFFICIENT MEMORY FOR DE4 SOLVER:
 MXBW MUST BE AT LEAST  115
 
 SOLVING FOR HEAD 

 NO OUTPUT CONTROL FOR STRESS PERIOD    1   TIME STEP  199
 SOLVING FOR ZETA FOR LAYER     1 ZONE     2

    6125 UPPER PART EQS.      6145 LOWER PART EQS.    BAND WIDTH + 1 =  109
 INSUFFICIENT MEMORY FOR DE4 SOLVER:
 MXBW MUST BE AT LEAST  109
 
 SOLVING FOR HEAD 

 OUTPUT CONTROL FOR STRESS PERIOD    1   TIME STEP  200
    SAVE HEAD FOR ALL LAYERS
    PRINT BUDGET
 SOLVING FOR ZETA FOR LAYER     1 ZONE     2

    6152 UPPER PART EQS.      6128 LOWER PART EQS.    BAND WIDTH + 1 =  106
 INSUFFICIENT MEMORY FOR DE4 SOLVER:
 MXBW MUST BE AT LEAST  106
 UBUDSV SAVING "      ZETASRF  1" ON UNIT 55 AT TIME STEP200, STRESS PERIOD    1


                      VOLUMETRIC SWI ZONE BUDGET FOR ENTIRE MODEL
                     AT END OF TIME STEP  200 IN STRESS PERIOD   1
                                      ZONE     1
  -----------------------------------------------------------------------------------

        CUMULATIVE VOLUMES      L**3       RATES FOR THIS TIME STEP      L**3/T
        ------------------                 ------------------------

              IN:                                      IN:
              ---                                      ---
             BOUNDARIES = 60068376576.0000            BOUNDARIES =      822695.3750
          CONSTANT HEAD =           0.0000         CONSTANT HEAD =           0.0000
            ZONE CHANGE =  2200541184.0000           ZONE CHANGE =           0.0000
       ZONE CHG TIP/TOE =    15735759.0000      ZONE CHG TIP/TOE =          25.3155
            ZONE MIXING =           0.0000           ZONE MIXING =           0.0000

               TOTAL IN = 62284652544.0000              TOTAL IN =      822720.6875

             OUT:                                     OUT:
             ----                                     ----
             BOUNDARIES =           0.0000            BOUNDARIES =           0.0000
          CONSTANT HEAD = 52262436864.0000         CONSTANT HEAD =      828233.3125
            ZONE CHANGE = 22452129792.0000           ZONE CHANGE =           0.0000
       ZONE CHG TIP/TOE =    12149018.0000      ZONE CHG TIP/TOE =          19.0477
            ZONE MIXING =           0.0000           ZONE MIXING =           0.0000

              TOTAL OUT = 74726711296.0000             TOTAL OUT =      828252.3750

               IN - OUT =-12442058752.0000              IN - OUT =       -5531.6875

    PERCENT DISCREPANCY =         -18.16     PERCENT DISCREPANCY =          -0.67



                      VOLUMETRIC SWI ZONE BUDGET FOR ENTIRE MODEL
                     AT END OF TIME STEP  200 IN STRESS PERIOD   1
                                      ZONE     2
  -----------------------------------------------------------------------------------

        CUMULATIVE VOLUMES      L**3       RATES FOR THIS TIME STEP      L**3/T
        ------------------                 ------------------------

              IN:                                      IN:
              ---                                      ---
             BOUNDARIES =    29594638.0000            BOUNDARIES =           0.0000
          CONSTANT HEAD =   362649568.0000         CONSTANT HEAD =        5985.2148
            ZONE CHANGE = 22452129792.0000           ZONE CHANGE =           0.0000
       ZONE CHG TIP/TOE =  1770396416.0000      ZONE CHG TIP/TOE =          19.0477
            ZONE MIXING =           0.0000           ZONE MIXING =           0.0000

               TOTAL IN = 24614768640.0000              TOTAL IN =        6004.2627

             OUT:                                     OUT:
             ----                                     ----
             BOUNDARIES =           0.0000            BOUNDARIES =           0.0000
          CONSTANT HEAD =  8198132224.0000         CONSTANT HEAD =         447.2893
            ZONE CHANGE =  3958787840.0000           ZONE CHANGE =           0.0000
       ZONE CHG TIP/TOE =    15735759.0000      ZONE CHG TIP/TOE =          25.3155
            ZONE MIXING =           0.0000           ZONE MIXING =           0.0000

              TOTAL OUT = 12172655616.0000             TOTAL OUT =         472.6048

               IN - OUT = 12442113024.0000              IN - OUT =        5531.6577

    PERCENT DISCREPANCY =          67.64     PERCENT DISCREPANCY =         170.81


 HEAD WILL BE SAVED ON UNIT   51 AT END OF TIME STEP  200, STRESS PERIOD    1
1
  VOLUMETRIC BUDGET FOR ENTIRE MODEL AT END OF TIME STEP  200, STRESS PERIOD   1
  ------------------------------------------------------------------------------

     CUMULATIVE VOLUMES      L**3       RATES FOR THIS TIME STEP      L**3/T
     ------------------                 ------------------------

           IN:                                      IN:
           ---                                      ---
             STORAGE =           0.0000               STORAGE =           0.0000
       CONSTANT HEAD =  1259017088.0000         CONSTANT HEAD =           0.0000
          SWIADDTOCH =315878932480.0000            SWIADDTOCH =     3848840.0000
            RECHARGE = 60097970176.0000              RECHARGE =      822695.3750

            TOTAL IN =377235898368.0000              TOTAL IN =     4671535.5000

          OUT:                                     OUT:
          ----                                     ----
             STORAGE =           0.0000               STORAGE =           0.0000
       CONSTANT HEAD =375791255552.0000         CONSTANT HEAD =     4669178.5000
          SWIADDTOCH =  1444443392.0000            SWIADDTOCH =        2356.9194
            RECHARGE =           0.0000              RECHARGE =           0.0000

           TOTAL OUT =377235701760.0000             TOTAL OUT =     4671535.5000

            IN - OUT =      196608.0000              IN - OUT =           0.0000

 PERCENT DISCREPANCY =           0.00     PERCENT DISCREPANCY =           0.00






         TIME SUMMARY AT END OF TIME STEP  200 IN STRESS PERIOD    1
                    SECONDS     MINUTES      HOURS       DAYS        YEARS
                    -----------------------------------------------------------
   TIME STEP LENGTH 3.15576E+07 5.25960E+05  8766.0      365.25      1.0000    
 STRESS PERIOD TIME 6.31152E+09 1.05192E+08 1.75320E+06  73050.      200.00    
         TOTAL TIME 6.31152E+09 1.05192E+08 1.75320E+06  73050.      200.00    
1
 
 SOLVING FOR HEAD 

 NO OUTPUT CONTROL FOR STRESS PERIOD    1   TIME STEP  201
 SOLVING FOR ZETA FOR LAYER     1 ZONE     2

    6143 UPPER PART EQS.      6150 LOWER PART EQS.    BAND WIDTH + 1 =  102
 STRESS PERIOD=  1 TIMESTEP=201 LAYER=  1 ZONE=  2 ACTIVE CELLS=12293 NUMBER OF EQUATIONS=   12293
 
 SOLVING FOR HEAD 

 NO OUTPUT CONTROL FOR STRESS PERIOD    1   TIME STEP  202
 SOLVING FOR ZETA FOR LAYER     1 ZONE     2

    6070 UPPER PART EQS.      6047 LOWER PART EQS.    BAND WIDTH + 1 =  106
 INSUFFICIENT MEMORY FOR DE4 SOLVER:
 MXBW MUST BE AT LEAST  106
 
 SOLVING FOR HEAD 

 NO OUTPUT CONTROL FOR STRESS PERIOD    1   TIME STEP  203
 SOLVING FOR ZETA FOR LAYER     1 ZONE     2

    6099 UPPER PART EQS.      6120 LOWER PART EQS.    BAND WIDTH + 1 =  109
 INSUFFICIENT MEMORY FOR DE4 SOLVER:
 MXBW MUST BE AT LEAST  109
 
 SOLVING FOR HEAD 

 NO OUTPUT CONTROL FOR STRESS PERIOD    1   TIME STEP  204
 SOLVING FOR ZETA FOR LAYER     1 ZONE     2

    6143 UPPER PART EQS.      6103 LOWER PART EQS.    BAND WIDTH + 1 =  111
 INSUFFICIENT MEMORY FOR DE4 SOLVER:
 MXBW MUST BE AT LEAST  111
 
 SOLVING FOR HEAD 

 NO OUTPUT CONTROL FOR STRESS PERIOD    1   TIME STEP  205
 SOLVING FOR ZETA FOR LAYER     1 ZONE     2

    6135 UPPER PART EQS.      6149 LOWER PART EQS.    BAND WIDTH + 1 =  104
 STRESS PERIOD=  1 TIMESTEP=205 LAYER=  1 ZONE=  2 ACTIVE CELLS=12284 NUMBER OF EQUATIONS=   12284
 
 SOLVING FOR HEAD 

 NO OUTPUT CONTROL FOR STRESS PERIOD    1   TIME STEP  206
 SOLVING FOR ZETA FOR LAYER     1 ZONE     2

    6066 UPPER PART EQS.      6051 LOWER PART EQS.    BAND WIDTH + 1 =  105
 STRESS PERIOD=  1 TIMESTEP=206 LAYER=  1 ZONE=  2 ACTIVE CELLS=12117 NUMBER OF EQUATIONS=   12117
 
 SOLVING FOR HEAD 

 NO OUTPUT CONTROL FOR STRESS PERIOD    1   TIME STEP  207
 SOLVING FOR ZETA FOR LAYER     1 ZONE     2

    6101 UPPER PART EQS.      6109 LOWER PART EQS.    BAND WIDTH + 1 =  101
 STRESS PERIOD=  1 TIMESTEP=207 LAYER=  1 ZONE=  2 ACTIVE CELLS=12210 NUMBER OF EQUATIONS=   12210
 
 SOLVING FOR HEAD 

 NO OUTPUT CONTROL FOR STRESS PERIOD    1   TIME STEP  208
 SOLVING FOR ZETA FOR LAYER     1 ZONE     2

    6100 UPPER PART EQS.      6085 LOWER PART EQS.    BAND WIDTH + 1 =  100
 STRESS PERIOD=  1 TIMESTEP=208 LAYER=  1 ZONE=  2 ACTIVE CELLS=12185 NUMBER OF EQUATIONS=   12185
 
 SOLVING FOR HEAD 

 NO OUTPUT CONTROL FOR STRESS PERIOD    1   TIME STEP  209
 SOLVING FOR ZETA FOR LAYER     1 ZONE     2

    6117 UPPER PART EQS.      6118 LOWER PART EQS.    BAND WIDTH + 1 =  100
 STRESS PERIOD=  1 TIMESTEP=209 LAYER=  1 ZONE=  2 ACTIVE CELLS=12235 NUMBER OF EQUATIONS=   12235
 
 SOLVING FOR HEAD 

 NO OUTPUT CONTROL FOR STRESS PERIOD    1   TIME STEP  210
 SOLVING FOR ZETA FOR LAYER     1 ZONE     2

    6117 UPPER PART EQS.      6095 LOWER PART EQS.    BAND WIDTH + 1 =  101
 STRESS PERIOD=  1 TIMESTEP=210 LAYER=  1 ZONE=  2 ACTIVE CELLS=12212 NUMBER OF EQUATIONS=   12212
 
 SOLVING FOR HEAD 

 NO OUTPUT CONTROL FOR STRESS PERIOD    1   TIME STEP  211
 SOLVING FOR ZETA FOR LAYER     1 ZONE     2

    6127 UPPER PART EQS.      6124 LOWER PART EQS.    BAND WIDTH + 1 =   99
 STRESS PERIOD=  1 TIMESTEP=211 LAYER=  1 ZONE=  2 ACTIVE CELLS=12251 NUMBER OF EQUATIONS=   12251
 
 SOLVING FOR HEAD 

 NO OUTPUT CONTROL FOR STRESS PERIOD    1   TIME STEP  212
 SOLVING FOR ZETA FOR LAYER     1 ZONE     2

    6115 UPPER PART EQS.      6099 LOWER PART EQS.    BAND WIDTH + 1 =  100
 STRESS PERIOD=  1 TIMESTEP=212 LAYER=  1 ZONE=  2 ACTIVE CELLS=12214 NUMBER OF EQUATIONS=   12214
 
 SOLVING FOR HEAD 

 NO OUTPUT CONTROL FOR STRESS PERIOD    1   TIME STEP  213
 SOLVING FOR ZETA FOR LAYER     1 ZONE     2

    6124 UPPER PART EQS.      6123 LOWER PART EQS.    BAND WIDTH + 1 =   99
 STRESS PERIOD=  1 TIMESTEP=213 LAYER=  1 ZONE=  2 ACTIVE CELLS=12247 NUMBER OF EQUATIONS=   12247
 
 SOLVING FOR HEAD 

 NO OUTPUT CONTROL FOR STRESS PERIOD    1   TIME STEP  214
 SOLVING FOR ZETA FOR LAYER     1 ZONE     2

    6117 UPPER PART EQS.      6099 LOWER PART EQS.    BAND WIDTH + 1 =   99
 STRESS PERIOD=  1 TIMESTEP=214 LAYER=  1 ZONE=  2 ACTIVE CELLS=12216 NUMBER OF EQUATIONS=   12216
 
 SOLVING FOR HEAD 

 NO OUTPUT CONTROL FOR STRESS PERIOD    1   TIME STEP  215
 SOLVING FOR ZETA FOR LAYER     1 ZONE     2

    6114 UPPER PART EQS.      6113 LOWER PART EQS.    BAND WIDTH + 1 =   99
 STRESS PERIOD=  1 TIMESTEP=215 LAYER=  1 ZONE=  2 ACTIVE CELLS=12227 NUMBER OF EQUATIONS=   12227
 
 SOLVING FOR HEAD 

 NO OUTPUT CONTROL FOR STRESS PERIOD    1   TIME STEP  216
 SOLVING FOR ZETA FOR LAYER     1 ZONE     2

    6122 UPPER PART EQS.      6109 LOWER PART EQS.    BAND WIDTH + 1 =  100
 STRESS PERIOD=  1 TIMESTEP=216 LAYER=  1 ZONE=  2 ACTIVE CELLS=12231 NUMBER OF EQUATIONS=   12231
 
 SOLVING FOR HEAD 

 NO OUTPUT CONTROL FOR STRESS PERIOD    1   TIME STEP  217
 SOLVING FOR ZETA FOR LAYER     1 ZONE     2

    6129 UPPER PART EQS.      6133 LOWER PART EQS.    BAND WIDTH + 1 =  100
 STRESS PERIOD=  1 TIMESTEP=217 LAYER=  1 ZONE=  2 ACTIVE CELLS=12262 NUMBER OF EQUATIONS=   12262
 
 SOLVING FOR HEAD 

 NO OUTPUT CONTROL FOR STRESS PERIOD    1   TIME STEP  218
 SOLVING FOR ZETA FOR LAYER     1 ZONE     2

    6114 UPPER PART EQS.      6092 LOWER PART EQS.    BAND WIDTH + 1 =  102
 STRESS PERIOD=  1 TIMESTEP=218 LAYER=  1 ZONE=  2 ACTIVE CELLS=12206 NUMBER OF EQUATIONS=   12206
 
 SOLVING FOR HEAD 

 NO OUTPUT CONTROL FOR STRESS PERIOD    1   TIME STEP  219
 SOLVING FOR ZETA FOR LAYER     1 ZONE     2

    6130 UPPER PART EQS.      6125 LOWER PART EQS.    BAND WIDTH + 1 =  101
 STRESS PERIOD=  1 TIMESTEP=219 LAYER=  1 ZONE=  2 ACTIVE CELLS=12255 NUMBER OF EQUATIONS=   12255
 
 SOLVING FOR HEAD 

 OUTPUT CONTROL FOR STRESS PERIOD    1   TIME STEP  220
    SAVE HEAD FOR ALL LAYERS
    PRINT BUDGET
 SOLVING FOR ZETA FOR LAYER     1 ZONE     2

    6123 UPPER PART EQS.      6100 LOWER PART EQS.    BAND WIDTH + 1 =  104
 STRESS PERIOD=  1 TIMESTEP=220 LAYER=  1 ZONE=  2 ACTIVE CELLS=12223 NUMBER OF EQUATIONS=   12223
 UBUDSV SAVING "      ZETASRF  1" ON UNIT 55 AT TIME STEP220, STRESS PERIOD    1


                      VOLUMETRIC SWI ZONE BUDGET FOR ENTIRE MODEL
                     AT END OF TIME STEP  220 IN STRESS PERIOD   1
                                      ZONE     1
  -----------------------------------------------------------------------------------

        CUMULATIVE VOLUMES      L**3       RATES FOR THIS TIME STEP      L**3/T
        ------------------                 ------------------------

              IN:                                      IN:
              ---                                      ---
             BOUNDARIES = 66078191616.0000            BOUNDARIES =      822695.3750
          CONSTANT HEAD =           0.0000         CONSTANT HEAD =           0.0000
            ZONE CHANGE =  2271927552.0000           ZONE CHANGE =        9030.5938
       ZONE CHG TIP/TOE =    16259183.0000      ZONE CHG TIP/TOE =          79.4322
            ZONE MIXING =           0.0000           ZONE MIXING =           0.0000

               TOTAL IN = 68366381056.0000              TOTAL IN =      831805.4375

             OUT:                                     OUT:
             ----                                     ----
             BOUNDARIES =           0.0000            BOUNDARIES =           0.0000
          CONSTANT HEAD = 58230185984.0000         CONSTANT HEAD =      819570.6250
            ZONE CHANGE = 23324485632.0000           ZONE CHANGE =      132637.3125
       ZONE CHG TIP/TOE =    12622348.0000      ZONE CHG TIP/TOE =          71.9057
            ZONE MIXING =           0.0000           ZONE MIXING =           0.0000

              TOTAL OUT = 81567293440.0000             TOTAL OUT =      952279.8125

               IN - OUT =-13200912384.0000              IN - OUT =     -120474.3750

    PERCENT DISCREPANCY =         -17.61     PERCENT DISCREPANCY =         -13.51



                      VOLUMETRIC SWI ZONE BUDGET FOR ENTIRE MODEL
                     AT END OF TIME STEP  220 IN STRESS PERIOD   1
                                      ZONE     2
  -----------------------------------------------------------------------------------

        CUMULATIVE VOLUMES      L**3       RATES FOR THIS TIME STEP      L**3/T
        ------------------                 ------------------------

              IN:                                      IN:
              ---                                      ---
             BOUNDARIES =    29594638.0000            BOUNDARIES =           0.0000
          CONSTANT HEAD =   404713664.0000         CONSTANT HEAD =        5440.1245
            ZONE CHANGE = 23324485632.0000           ZONE CHANGE =      132637.3125
       ZONE CHG TIP/TOE =  1788224128.0000      ZONE CHG TIP/TOE =        2150.8599
            ZONE MIXING =           0.0000           ZONE MIXING =           0.0000

               TOTAL IN = 25547018240.0000              TOTAL IN =      140228.2969

             OUT:                                     OUT:
             ----                                     ----
             BOUNDARIES =           0.0000            BOUNDARIES =           0.0000
          CONSTANT HEAD =  8282248704.0000         CONSTANT HEAD =        8564.9199
            ZONE CHANGE =  4047528960.0000           ZONE CHANGE =       11109.5479
       ZONE CHG TIP/TOE =    16259183.0000      ZONE CHG TIP/TOE =          79.4322
            ZONE MIXING =           0.0000           ZONE MIXING =           0.0000

              TOTAL OUT = 12346036224.0000             TOTAL OUT =       19753.9004

               IN - OUT = 13200982016.0000              IN - OUT =      120474.3984

    PERCENT DISCREPANCY =          69.67     PERCENT DISCREPANCY =         150.61


 HEAD WILL BE SAVED ON UNIT   51 AT END OF TIME STEP  220, STRESS PERIOD    1
1
  VOLUMETRIC BUDGET FOR ENTIRE MODEL AT END OF TIME STEP  220, STRESS PERIOD   1
  ------------------------------------------------------------------------------

     CUMULATIVE VOLUMES      L**3       RATES FOR THIS TIME STEP      L**3/T
     ------------------                 ------------------------

           IN:                                      IN:
           ---                                      ---
             STORAGE =           0.0000               STORAGE =           0.0000
       CONSTANT HEAD =  1259017088.0000         CONSTANT HEAD =           0.0000
          SWIADDTOCH =343615078400.0000            SWIADDTOCH =     3705979.5000
            RECHARGE = 66107785216.0000              RECHARGE =      822695.3750

            TOTAL IN =410981892096.0000              TOTAL IN =     4528675.0000

          OUT:                                     OUT:
          ----                                     ----
             STORAGE =           0.0000               STORAGE =           0.0000
       CONSTANT HEAD =409520734208.0000         CONSTANT HEAD =     4526546.5000
          SWIADDTOCH =  1460882048.0000            SWIADDTOCH =        2128.6230
            RECHARGE =           0.0000              RECHARGE =           0.0000

           TOTAL OUT =410981629952.0000             TOTAL OUT =     4528675.0000

            IN - OUT =      262144.0000              IN - OUT =           0.0000

 PERCENT DISCREPANCY =           0.00     PERCENT DISCREPANCY =           0.00






         TIME SUMMARY AT END OF TIME STEP  220 IN STRESS PERIOD    1
                    SECONDS     MINUTES      HOURS       DAYS        YEARS
                    -----------------------------------------------------------
   TIME STEP LENGTH 3.15576E+07 5.25960E+05  8766.0      365.25      1.0000    
 STRESS PERIOD TIME 6.94267E+09 1.15711E+08 1.92852E+06  80355.      220.00    
         TOTAL TIME 6.94267E+09 1.15711E+08 1.92852E+06  80355.      220.00    
1
 
 SOLVING FOR HEAD 

 NO OUTPUT CONTROL FOR STRESS PERIOD    1   TIME STEP  221
 SOLVING FOR ZETA FOR LAYER     1 ZONE     2

    6121 UPPER PART EQS.      6125 LOWER PART EQS.    BAND WIDTH + 1 =   99
 STRESS PERIOD=  1 TIMESTEP=221 LAYER=  1 ZONE=  2 ACTIVE CELLS=12246 NUMBER OF EQUATIONS=   12246
 
 SOLVING FOR HEAD 

 NO OUTPUT CONTROL FOR STRESS PERIOD    1   TIME STEP  222
 SOLVING FOR ZETA FOR LAYER     1 ZONE     2

    6125 UPPER PART EQS.      6107 LOWER PART EQS.    BAND WIDTH + 1 =  102
 STRESS PERIOD=  1 TIMESTEP=222 LAYER=  1 ZONE=  2 ACTIVE CELLS=12232 NUMBER OF EQUATIONS=   12232
 
 SOLVING FOR HEAD 

 NO OUTPUT CONTROL FOR STRESS PERIOD    1   TIME STEP  223
 SOLVING FOR ZETA FOR LAYER     1 ZONE     2

    6131 UPPER PART EQS.      6135 LOWER PART EQS.    BAND WIDTH + 1 =   99
 STRESS PERIOD=  1 TIMESTEP=223 LAYER=  1 ZONE=  2 ACTIVE CELLS=12266 NUMBER OF EQUATIONS=   12266
 
 SOLVING FOR HEAD 

 NO OUTPUT CONTROL FOR STRESS PERIOD    1   TIME STEP  224
 SOLVING FOR ZETA FOR LAYER     1 ZONE     2

    6131 UPPER PART EQS.      6115 LOWER PART EQS.    BAND WIDTH + 1 =  100
 STRESS PERIOD=  1 TIMESTEP=224 LAYER=  1 ZONE=  2 ACTIVE CELLS=12246 NUMBER OF EQUATIONS=   12246
 
 SOLVING FOR HEAD 

 NO OUTPUT CONTROL FOR STRESS PERIOD    1   TIME STEP  225
 SOLVING FOR ZETA FOR LAYER     1 ZONE     2

    6140 UPPER PART EQS.      6136 LOWER PART EQS.    BAND WIDTH + 1 =  100
 STRESS PERIOD=  1 TIMESTEP=225 LAYER=  1 ZONE=  2 ACTIVE CELLS=12276 NUMBER OF EQUATIONS=   12276
 
 SOLVING FOR HEAD 

 NO OUTPUT CONTROL FOR STRESS PERIOD    1   TIME STEP  226
 SOLVING FOR ZETA FOR LAYER     1 ZONE     2

    6141 UPPER PART EQS.      6134 LOWER PART EQS.    BAND WIDTH + 1 =   99
 STRESS PERIOD=  1 TIMESTEP=226 LAYER=  1 ZONE=  2 ACTIVE CELLS=12275 NUMBER OF EQUATIONS=   12275
 
 SOLVING FOR HEAD 

 NO OUTPUT CONTROL FOR STRESS PERIOD    1   TIME STEP  227
 SOLVING FOR ZETA FOR LAYER     1 ZONE     2

    6136 UPPER PART EQS.      6141 LOWER PART EQS.    BAND WIDTH + 1 =   99
 STRESS PERIOD=  1 TIMESTEP=227 LAYER=  1 ZONE=  2 ACTIVE CELLS=12277 NUMBER OF EQUATIONS=   12277
 
 SOLVING FOR HEAD 

 NO OUTPUT CONTROL FOR STRESS PERIOD    1   TIME STEP  228
 SOLVING FOR ZETA FOR LAYER     1 ZONE     2

    6161 UPPER PART EQS.      6140 LOWER PART EQS.    BAND WIDTH + 1 =  101
 STRESS PERIOD=  1 TIMESTEP=228 LAYER=  1 ZONE=  2 ACTIVE CELLS=12301 NUMBER OF EQUATIONS=   12301
 
 SOLVING FOR HEAD 

 NO OUTPUT CONTROL FOR STRESS PERIOD    1   TIME STEP  229
 SOLVING FOR ZETA FOR LAYER     1 ZONE     2

    6158 UPPER PART EQS.      6158 LOWER PART EQS.    BAND WIDTH + 1 =  100
 STRESS PERIOD=  1 TIMESTEP=229 LAYER=  1 ZONE=  2 ACTIVE CELLS=12316 NUMBER OF EQUATIONS=   12316
 
 SOLVING FOR HEAD 

 NO OUTPUT CONTROL FOR STRESS PERIOD    1   TIME STEP  230
 SOLVING FOR ZETA FOR LAYER     1 ZONE     2

    6151 UPPER PART EQS.      6131 LOWER PART EQS.    BAND WIDTH + 1 =  100
 STRESS PERIOD=  1 TIMESTEP=230 LAYER=  1 ZONE=  2 ACTIVE CELLS=12282 NUMBER OF EQUATIONS=   12282
 
 SOLVING FOR HEAD 

 NO OUTPUT CONTROL FOR STRESS PERIOD    1   TIME STEP  231
 SOLVING FOR ZETA FOR LAYER     1 ZONE     2

    6143 UPPER PART EQS.      6156 LOWER PART EQS.    BAND WIDTH + 1 =  101
 STRESS PERIOD=  1 TIMESTEP=231 LAYER=  1 ZONE=  2 ACTIVE CELLS=12299 NUMBER OF EQUATIONS=   12299
 
 SOLVING FOR HEAD 

 NO OUTPUT CONTROL FOR STRESS PERIOD    1   TIME STEP  232
 SOLVING FOR ZETA FOR LAYER     1 ZONE     2

    6152 UPPER PART EQS.      6137 LOWER PART EQS.    BAND WIDTH + 1 =  103
 STRESS PERIOD=  1 TIMESTEP=232 LAYER=  1 ZONE=  2 ACTIVE CELLS=12289 NUMBER OF EQUATIONS=   12289
 
 SOLVING FOR HEAD 

 NO OUTPUT CONTROL FOR STRESS PERIOD    1   TIME STEP  233
 SOLVING FOR ZETA FOR LAYER     1 ZONE     2

    6146 UPPER PART EQS.      6146 LOWER PART EQS.    BAND WIDTH + 1 =  102
 STRESS PERIOD=  1 TIMESTEP=233 LAYER=  1 ZONE=  2 ACTIVE CELLS=12292 NUMBER OF EQUATIONS=   12292
 
 SOLVING FOR HEAD 

 NO OUTPUT CONTROL FOR STRESS PERIOD    1   TIME STEP  234
 SOLVING FOR ZETA FOR LAYER     1 ZONE     2

    6155 UPPER PART EQS.      6136 LOWER PART EQS.    BAND WIDTH + 1 =  105
 STRESS PERIOD=  1 TIMESTEP=234 LAYER=  1 ZONE=  2 ACTIVE CELLS=12291 NUMBER OF EQUATIONS=   12291
 
 SOLVING FOR HEAD 

 NO OUTPUT CONTROL FOR STRESS PERIOD    1   TIME STEP  235
 SOLVING FOR ZETA FOR LAYER     1 ZONE     2

    6157 UPPER PART EQS.      6155 LOWER PART EQS.    BAND WIDTH + 1 =  101
 STRESS PERIOD=  1 TIMESTEP=235 LAYER=  1 ZONE=  2 ACTIVE CELLS=12312 NUMBER OF EQUATIONS=   12312
 
 SOLVING FOR HEAD 

 NO OUTPUT CONTROL FOR STRESS PERIOD    1   TIME STEP  236
 SOLVING FOR ZETA FOR LAYER     1 ZONE     2

    6155 UPPER PART EQS.      6137 LOWER PART EQS.    BAND WIDTH + 1 =  103
 STRESS PERIOD=  1 TIMESTEP=236 LAYER=  1 ZONE=  2 ACTIVE CELLS=12292 NUMBER OF EQUATIONS=   12292
 
 SOLVING FOR HEAD 

 NO OUTPUT CONTROL FOR STRESS PERIOD    1   TIME STEP  237
 SOLVING FOR ZETA FOR LAYER     1 ZONE     2

    6154 UPPER PART EQS.      6154 LOWER PART EQS.    BAND WIDTH + 1 =   99
 STRESS PERIOD=  1 TIMESTEP=237 LAYER=  1 ZONE=  2 ACTIVE CELLS=12308 NUMBER OF EQUATIONS=   12308
 
 SOLVING FOR HEAD 

 NO OUTPUT CONTROL FOR STRESS PERIOD    1   TIME STEP  238
 SOLVING FOR ZETA FOR LAYER     1 ZONE     2

    6165 UPPER PART EQS.      6152 LOWER PART EQS.    BAND WIDTH + 1 =  100
 STRESS PERIOD=  1 TIMESTEP=238 LAYER=  1 ZONE=  2 ACTIVE CELLS=12317 NUMBER OF EQUATIONS=   12317
 
 SOLVING FOR HEAD 

 NO OUTPUT CONTROL FOR STRESS PERIOD    1   TIME STEP  239
 SOLVING FOR ZETA FOR LAYER     1 ZONE     2

    6167 UPPER PART EQS.      6162 LOWER PART EQS.    BAND WIDTH + 1 =  104
 STRESS PERIOD=  1 TIMESTEP=239 LAYER=  1 ZONE=  2 ACTIVE CELLS=12329 NUMBER OF EQUATIONS=   12329
 
 SOLVING FOR HEAD 

 OUTPUT CONTROL FOR STRESS PERIOD    1   TIME STEP  240
    SAVE HEAD FOR ALL LAYERS
    PRINT BUDGET
 SOLVING FOR ZETA FOR LAYER     1 ZONE     2

    6165 UPPER PART EQS.      6158 LOWER PART EQS.    BAND WIDTH + 1 =   99
 STRESS PERIOD=  1 TIMESTEP=240 LAYER=  1 ZONE=  2 ACTIVE CELLS=12323 NUMBER OF EQUATIONS=   12323
 UBUDSV SAVING "      ZETASRF  1" ON UNIT 55 AT TIME STEP240, STRESS PERIOD    1


                      VOLUMETRIC SWI ZONE BUDGET FOR ENTIRE MODEL
                     AT END OF TIME STEP  240 IN STRESS PERIOD   1
                                      ZONE     1
  -----------------------------------------------------------------------------------

        CUMULATIVE VOLUMES      L**3       RATES FOR THIS TIME STEP      L**3/T
        ------------------                 ------------------------

              IN:                                      IN:
              ---                                      ---
             BOUNDARIES = 72088002560.0000            BOUNDARIES =      822695.3750
          CONSTANT HEAD =           0.0000         CONSTANT HEAD =           0.0000
            ZONE CHANGE =  2341030656.0000           ZONE CHANGE =        7337.5342
       ZONE CHG TIP/TOE =    16668044.0000      ZONE CHG TIP/TOE =          39.8932
            ZONE MIXING =           0.0000           ZONE MIXING =           0.0000

               TOTAL IN = 74445701120.0000              TOTAL IN =      830072.8125

             OUT:                                     OUT:
             ----                                     ----
             BOUNDARIES =           0.0000            BOUNDARIES =           0.0000
          CONSTANT HEAD = 64236351488.0000         CONSTANT HEAD =      827411.3750
            ZONE CHANGE = 24230877184.0000           ZONE CHANGE =      109805.9062
       ZONE CHG TIP/TOE =    13019012.0000      ZONE CHG TIP/TOE =          43.7642
            ZONE MIXING =           0.0000           ZONE MIXING =           0.0000

              TOTAL OUT = 88480243712.0000             TOTAL OUT =      937261.0000

               IN - OUT =-14034542592.0000              IN - OUT =     -107188.1875

    PERCENT DISCREPANCY =         -17.23     PERCENT DISCREPANCY =         -12.13



                      VOLUMETRIC SWI ZONE BUDGET FOR ENTIRE MODEL
                     AT END OF TIME STEP  240 IN STRESS PERIOD   1
                                      ZONE     2
  -----------------------------------------------------------------------------------

        CUMULATIVE VOLUMES      L**3       RATES FOR THIS TIME STEP      L**3/T
        ------------------                 ------------------------

              IN:                                      IN:
              ---                                      ---
             BOUNDARIES =    29594638.0000            BOUNDARIES =           0.0000
          CONSTANT HEAD =   441755136.0000         CONSTANT HEAD =        4751.4199
            ZONE CHANGE = 24230877184.0000           ZONE CHANGE =      109805.9062
       ZONE CHG TIP/TOE =  1801456000.0000      ZONE CHG TIP/TOE =         921.1039
            ZONE MIXING =           0.0000           ZONE MIXING =           0.0000

               TOTAL IN = 26503682048.0000              TOTAL IN =      115478.4297

             OUT:                                     OUT:
             ----                                     ----
             BOUNDARIES =           0.0000            BOUNDARIES =           0.0000
          CONSTANT HEAD =  8322918912.0000         CONSTANT HEAD =          35.4275
            ZONE CHANGE =  4129468160.0000           ZONE CHANGE =        8214.8740
       ZONE CHG TIP/TOE =    16668044.0000      ZONE CHG TIP/TOE =          39.8932
            ZONE MIXING =           0.0000           ZONE MIXING =           0.0000

              TOTAL OUT = 12469054464.0000             TOTAL OUT =        8290.1953

               IN - OUT = 14034627584.0000              IN - OUT =      107188.2344

    PERCENT DISCREPANCY =          72.02     PERCENT DISCREPANCY =         173.21


 HEAD WILL BE SAVED ON UNIT   51 AT END OF TIME STEP  240, STRESS PERIOD    1
1
  VOLUMETRIC BUDGET FOR ENTIRE MODEL AT END OF TIME STEP  240, STRESS PERIOD   1
  ------------------------------------------------------------------------------

     CUMULATIVE VOLUMES      L**3       RATES FOR THIS TIME STEP      L**3/T
     ------------------                 ------------------------

           IN:                                      IN:
           ---                                      ---
             STORAGE =           0.0000               STORAGE =           0.0000
       CONSTANT HEAD =  1259017088.0000         CONSTANT HEAD =           0.0000
          SWIADDTOCH =369850810368.0000            SWIADDTOCH =     3482263.0000
            RECHARGE = 72117600256.0000              RECHARGE =      822695.3750

            TOTAL IN =443227439104.0000              TOTAL IN =     4304958.5000

          OUT:                                     OUT:
          ----                                     ----
             STORAGE =           0.0000               STORAGE =           0.0000
       CONSTANT HEAD =441751666688.0000         CONSTANT HEAD =     4303132.0000
          SWIADDTOCH =  1475374976.0000            SWIADDTOCH =        1826.4526
            RECHARGE =           0.0000              RECHARGE =           0.0000

           TOTAL OUT =443227045888.0000             TOTAL OUT =     4304958.5000

            IN - OUT =      393216.0000              IN - OUT =           0.0000

 PERCENT DISCREPANCY =           0.00     PERCENT DISCREPANCY =           0.00






         TIME SUMMARY AT END OF TIME STEP  240 IN STRESS PERIOD    1
                    SECONDS     MINUTES      HOURS       DAYS        YEARS
                    -----------------------------------------------------------
   TIME STEP LENGTH 3.15576E+07 5.25960E+05  8766.0      365.25      1.0000    
 STRESS PERIOD TIME 7.57382E+09 1.26230E+08 2.10384E+06  87660.      240.00    
         TOTAL TIME 7.57382E+09 1.26230E+08 2.10384E+06  87660.      240.00    
1
 
 SOLVING FOR HEAD 

 NO OUTPUT CONTROL FOR STRESS PERIOD    1   TIME STEP  241
 SOLVING FOR ZETA FOR LAYER     1 ZONE     2

    6168 UPPER PART EQS.      6165 LOWER PART EQS.    BAND WIDTH + 1 =  100
 STRESS PERIOD=  1 TIMESTEP=241 LAYER=  1 ZONE=  2 ACTIVE CELLS=12333 NUMBER OF EQUATIONS=   12333
 
 SOLVING FOR HEAD 

 NO OUTPUT CONTROL FOR STRESS PERIOD    1   TIME STEP  242
 SOLVING FOR ZETA FOR LAYER     1 ZONE     2

    6160 UPPER PART EQS.      6157 LOWER PART EQS.    BAND WIDTH + 1 =  102
 STRESS PERIOD=  1 TIMESTEP=242 LAYER=  1 ZONE=  2 ACTIVE CELLS=12317 NUMBER OF EQUATIONS=   12317
 
 SOLVING FOR HEAD 

 NO OUTPUT CONTROL FOR STRESS PERIOD    1   TIME STEP  243
 SOLVING FOR ZETA FOR LAYER     1 ZONE     2

    6164 UPPER PART EQS.      6166 LOWER PART EQS.    BAND WIDTH + 1 =   99
 STRESS PERIOD=  1 TIMESTEP=243 LAYER=  1 ZONE=  2 ACTIVE CELLS=12330 NUMBER OF EQUATIONS=   12330
 
 SOLVING FOR HEAD 

 NO OUTPUT CONTROL FOR STRESS PERIOD    1   TIME STEP  244
 SOLVING FOR ZETA FOR LAYER     1 ZONE     2

    6162 UPPER PART EQS.      6155 LOWER PART EQS.    BAND WIDTH + 1 =   99
 STRESS PERIOD=  1 TIMESTEP=244 LAYER=  1 ZONE=  2 ACTIVE CELLS=12317 NUMBER OF EQUATIONS=   12317
 
 SOLVING FOR HEAD 

 NO OUTPUT CONTROL FOR STRESS PERIOD    1   TIME STEP  245
 SOLVING FOR ZETA FOR LAYER     1 ZONE     2

    6165 UPPER PART EQS.      6163 LOWER PART EQS.    BAND WIDTH + 1 =  100
 STRESS PERIOD=  1 TIMESTEP=245 LAYER=  1 ZONE=  2 ACTIVE CELLS=12328 NUMBER OF EQUATIONS=   12328
 
 SOLVING FOR HEAD 

 NO OUTPUT CONTROL FOR STRESS PERIOD    1   TIME STEP  246
 SOLVING FOR ZETA FOR LAYER     1 ZONE     2

    6163 UPPER PART EQS.      6152 LOWER PART EQS.    BAND WIDTH + 1 =  100
 STRESS PERIOD=  1 TIMESTEP=246 LAYER=  1 ZONE=  2 ACTIVE CELLS=12315 NUMBER OF EQUATIONS=   12315
 
 SOLVING FOR HEAD 

 NO OUTPUT CONTROL FOR STRESS PERIOD    1   TIME STEP  247
 SOLVING FOR ZETA FOR LAYER     1 ZONE     2

    6170 UPPER PART EQS.      6174 LOWER PART EQS.    BAND WIDTH + 1 =   99
 STRESS PERIOD=  1 TIMESTEP=247 LAYER=  1 ZONE=  2 ACTIVE CELLS=12344 NUMBER OF EQUATIONS=   12344
 
 SOLVING FOR HEAD 

 NO OUTPUT CONTROL FOR STRESS PERIOD    1   TIME STEP  248
 SOLVING FOR ZETA FOR LAYER     1 ZONE     2

    6169 UPPER PART EQS.      6159 LOWER PART EQS.    BAND WIDTH + 1 =   99
 STRESS PERIOD=  1 TIMESTEP=248 LAYER=  1 ZONE=  2 ACTIVE CELLS=12328 NUMBER OF EQUATIONS=   12328
 
 SOLVING FOR HEAD 

 NO OUTPUT CONTROL FOR STRESS PERIOD    1   TIME STEP  249
 SOLVING FOR ZETA FOR LAYER     1 ZONE     2

    6170 UPPER PART EQS.      6173 LOWER PART EQS.    BAND WIDTH + 1 =  101
 STRESS PERIOD=  1 TIMESTEP=249 LAYER=  1 ZONE=  2 ACTIVE CELLS=12343 NUMBER OF EQUATIONS=   12343
 
 SOLVING FOR HEAD 

 NO OUTPUT CONTROL FOR STRESS PERIOD    1   TIME STEP  250
 SOLVING FOR ZETA FOR LAYER     1 ZONE     2

    6176 UPPER PART EQS.      6165 LOWER PART EQS.    BAND WIDTH + 1 =  100
 STRESS PERIOD=  1 TIMESTEP=250 LAYER=  1 ZONE=  2 ACTIVE CELLS=12341 NUMBER OF EQUATIONS=   12341
 
 SOLVING FOR HEAD 

 NO OUTPUT CONTROL FOR STRESS PERIOD    1   TIME STEP  251
 SOLVING FOR ZETA FOR LAYER     1 ZONE     2

    6174 UPPER PART EQS.      6178 LOWER PART EQS.    BAND WIDTH + 1 =   99
 STRESS PERIOD=  1 TIMESTEP=251 LAYER=  1 ZONE=  2 ACTIVE CELLS=12352 NUMBER OF EQUATIONS=   12352
 
 SOLVING FOR HEAD 

 NO OUTPUT CONTROL FOR STRESS PERIOD    1   TIME STEP  252
 SOLVING FOR ZETA FOR LAYER     1 ZONE     2

    6174 UPPER PART EQS.      6165 LOWER PART EQS.    BAND WIDTH + 1 =  101
 STRESS PERIOD=  1 TIMESTEP=252 LAYER=  1 ZONE=  2 ACTIVE CELLS=12339 NUMBER OF EQUATIONS=   12339
 
 SOLVING FOR HEAD 

 NO OUTPUT CONTROL FOR STRESS PERIOD    1   TIME STEP  253
 SOLVING FOR ZETA FOR LAYER     1 ZONE     2

    6179 UPPER PART EQS.      6183 LOWER PART EQS.    BAND WIDTH + 1 =   99
 STRESS PERIOD=  1 TIMESTEP=253 LAYER=  1 ZONE=  2 ACTIVE CELLS=12362 NUMBER OF EQUATIONS=   12362
 
 SOLVING FOR HEAD 

 NO OUTPUT CONTROL FOR STRESS PERIOD    1   TIME STEP  254
 SOLVING FOR ZETA FOR LAYER     1 ZONE     2

    6181 UPPER PART EQS.      6167 LOWER PART EQS.    BAND WIDTH + 1 =  102
 STRESS PERIOD=  1 TIMESTEP=254 LAYER=  1 ZONE=  2 ACTIVE CELLS=12348 NUMBER OF EQUATIONS=   12348
 
 SOLVING FOR HEAD 

 NO OUTPUT CONTROL FOR STRESS PERIOD    1   TIME STEP  255
 SOLVING FOR ZETA FOR LAYER     1 ZONE     2

    6179 UPPER PART EQS.      6183 LOWER PART EQS.    BAND WIDTH + 1 =   99
 STRESS PERIOD=  1 TIMESTEP=255 LAYER=  1 ZONE=  2 ACTIVE CELLS=12362 NUMBER OF EQUATIONS=   12362
 
 SOLVING FOR HEAD 

 NO OUTPUT CONTROL FOR STRESS PERIOD    1   TIME STEP  256
 SOLVING FOR ZETA FOR LAYER     1 ZONE     2

    6187 UPPER PART EQS.      6171 LOWER PART EQS.    BAND WIDTH + 1 =  101
 STRESS PERIOD=  1 TIMESTEP=256 LAYER=  1 ZONE=  2 ACTIVE CELLS=12358 NUMBER OF EQUATIONS=   12358
 
 SOLVING FOR HEAD 

 NO OUTPUT CONTROL FOR STRESS PERIOD    1   TIME STEP  257
 SOLVING FOR ZETA FOR LAYER     1 ZONE     2

    6178 UPPER PART EQS.      6177 LOWER PART EQS.    BAND WIDTH + 1 =   99
 STRESS PERIOD=  1 TIMESTEP=257 LAYER=  1 ZONE=  2 ACTIVE CELLS=12355 NUMBER OF EQUATIONS=   12355
 
 SOLVING FOR HEAD 

 NO OUTPUT CONTROL FOR STRESS PERIOD    1   TIME STEP  258
 SOLVING FOR ZETA FOR LAYER     1 ZONE     2

    6184 UPPER PART EQS.      6176 LOWER PART EQS.    BAND WIDTH + 1 =  100
 STRESS PERIOD=  1 TIMESTEP=258 LAYER=  1 ZONE=  2 ACTIVE CELLS=12360 NUMBER OF EQUATIONS=   12360
 
 SOLVING FOR HEAD 

 NO OUTPUT CONTROL FOR STRESS PERIOD    1   TIME STEP  259
 SOLVING FOR ZETA FOR LAYER     1 ZONE     2

    6182 UPPER PART EQS.      6177 LOWER PART EQS.    BAND WIDTH + 1 =  100
 STRESS PERIOD=  1 TIMESTEP=259 LAYER=  1 ZONE=  2 ACTIVE CELLS=12359 NUMBER OF EQUATIONS=   12359
 
 SOLVING FOR HEAD 

 OUTPUT CONTROL FOR STRESS PERIOD    1   TIME STEP  260
    SAVE HEAD FOR ALL LAYERS
    PRINT BUDGET
 SOLVING FOR ZETA FOR LAYER     1 ZONE     2

    6179 UPPER PART EQS.      6173 LOWER PART EQS.    BAND WIDTH + 1 =  100
 STRESS PERIOD=  1 TIMESTEP=260 LAYER=  1 ZONE=  2 ACTIVE CELLS=12352 NUMBER OF EQUATIONS=   12352
 UBUDSV SAVING "      ZETASRF  1" ON UNIT 55 AT TIME STEP260, STRESS PERIOD    1


                      VOLUMETRIC SWI ZONE BUDGET FOR ENTIRE MODEL
                     AT END OF TIME STEP  260 IN STRESS PERIOD   1
                                      ZONE     1
  -----------------------------------------------------------------------------------

        CUMULATIVE VOLUMES      L**3       RATES FOR THIS TIME STEP      L**3/T
        ------------------                 ------------------------

              IN:                                      IN:
              ---                                      ---
             BOUNDARIES = 78097817600.0000            BOUNDARIES =      822695.3750
          CONSTANT HEAD =           0.0000         CONSTANT HEAD =           0.0000
            ZONE CHANGE =  2381688832.0000           ZONE CHANGE =        4937.1274
       ZONE CHG TIP/TOE =    16977580.0000      ZONE CHG TIP/TOE =          41.1641
            ZONE MIXING =           0.0000           ZONE MIXING =           0.0000

               TOTAL IN = 80496476160.0000              TOTAL IN =      827673.6875

             OUT:                                     OUT:
             ----                                     ----
             BOUNDARIES =           0.0000            BOUNDARIES =           0.0000
          CONSTANT HEAD = 70253404160.0000         CONSTANT HEAD =      821215.9375
            ZONE CHANGE = 25012852736.0000           ZONE CHANGE =      103237.7109
       ZONE CHG TIP/TOE =    13327012.0000      ZONE CHG TIP/TOE =          41.9054
            ZONE MIXING =           0.0000           ZONE MIXING =           0.0000

              TOTAL OUT = 95279587328.0000             TOTAL OUT =      924495.5000

               IN - OUT =-14783111168.0000              IN - OUT =      -96821.8125

    PERCENT DISCREPANCY =         -16.82     PERCENT DISCREPANCY =         -11.05



                      VOLUMETRIC SWI ZONE BUDGET FOR ENTIRE MODEL
                     AT END OF TIME STEP  260 IN STRESS PERIOD   1
                                      ZONE     2
  -----------------------------------------------------------------------------------

        CUMULATIVE VOLUMES      L**3       RATES FOR THIS TIME STEP      L**3/T
        ------------------                 ------------------------

              IN:                                      IN:
              ---                                      ---
             BOUNDARIES =    29594638.0000            BOUNDARIES =           0.0000
          CONSTANT HEAD =   474006016.0000         CONSTANT HEAD =        4098.2930
            ZONE CHANGE = 25012852736.0000           ZONE CHANGE =      103237.7109
       ZONE CHG TIP/TOE =  1810812928.0000      ZONE CHG TIP/TOE =        1055.9022
            ZONE MIXING =           0.0000           ZONE MIXING =           0.0000

               TOTAL IN = 27327266816.0000              TOTAL IN =      108391.8984

             OUT:                                     OUT:
             ----                                     ----
             BOUNDARIES =           0.0000            BOUNDARIES =           0.0000
          CONSTANT HEAD =  8347918336.0000         CONSTANT HEAD =        5577.7363
            ZONE CHANGE =  4179175680.0000           ZONE CHANGE =        5951.1240
       ZONE CHG TIP/TOE =    16977580.0000      ZONE CHG TIP/TOE =          41.1641
            ZONE MIXING =           0.0000           ZONE MIXING =           0.0000

              TOTAL OUT = 12544071680.0000             TOTAL OUT =       11570.0244

               IN - OUT = 14783195136.0000              IN - OUT =       96821.8750

    PERCENT DISCREPANCY =          74.15     PERCENT DISCREPANCY =         161.42


 HEAD WILL BE SAVED ON UNIT   51 AT END OF TIME STEP  260, STRESS PERIOD    1
1
  VOLUMETRIC BUDGET FOR ENTIRE MODEL AT END OF TIME STEP  260, STRESS PERIOD   1
  ------------------------------------------------------------------------------

     CUMULATIVE VOLUMES      L**3       RATES FOR THIS TIME STEP      L**3/T
     ------------------                 ------------------------

           IN:                                      IN:
           ---                                      ---
             STORAGE =           0.0000               STORAGE =           0.0000
       CONSTANT HEAD =  1259017088.0000         CONSTANT HEAD =           0.0000
          SWIADDTOCH =394690002944.0000            SWIADDTOCH =     3331767.7500
            RECHARGE = 78127415296.0000              RECHARGE =      822695.3750

            TOTAL IN =474076413952.0000              TOTAL IN =     4154463.0000

          OUT:                                     OUT:
          ----                                     ----
             STORAGE =           0.0000               STORAGE =           0.0000
       CONSTANT HEAD =472584519680.0000         CONSTANT HEAD =     4152344.7500
          SWIADDTOCH =  1491481088.0000            SWIADDTOCH =        2118.5740
            RECHARGE =           0.0000              RECHARGE =           0.0000

           TOTAL OUT =474075987968.0000             TOTAL OUT =     4154463.2500

            IN - OUT =      425984.0000              IN - OUT =          -0.2500

 PERCENT DISCREPANCY =           0.00     PERCENT DISCREPANCY =          -0.00






         TIME SUMMARY AT END OF TIME STEP  260 IN STRESS PERIOD    1
                    SECONDS     MINUTES      HOURS       DAYS        YEARS
                    -----------------------------------------------------------
   TIME STEP LENGTH 3.15576E+07 5.25960E+05  8766.0      365.25      1.0000    
 STRESS PERIOD TIME 8.20498E+09 1.36750E+08 2.27916E+06  94965.      260.00    
         TOTAL TIME 8.20498E+09 1.36750E+08 2.27916E+06  94965.      260.00    
1
 
 SOLVING FOR HEAD 

 NO OUTPUT CONTROL FOR STRESS PERIOD    1   TIME STEP  261
 SOLVING FOR ZETA FOR LAYER     1 ZONE     2

    6180 UPPER PART EQS.      6182 LOWER PART EQS.    BAND WIDTH + 1 =  100
 STRESS PERIOD=  1 TIMESTEP=261 LAYER=  1 ZONE=  2 ACTIVE CELLS=12362 NUMBER OF EQUATIONS=   12362
 
 SOLVING FOR HEAD 

 NO OUTPUT CONTROL FOR STRESS PERIOD    1   TIME STEP  262
 SOLVING FOR ZETA FOR LAYER     1 ZONE     2

    6188 UPPER PART EQS.      6184 LOWER PART EQS.    BAND WIDTH + 1 =  100
 STRESS PERIOD=  1 TIMESTEP=262 LAYER=  1 ZONE=  2 ACTIVE CELLS=12372 NUMBER OF EQUATIONS=   12372
 
 SOLVING FOR HEAD 

 NO OUTPUT CONTROL FOR STRESS PERIOD    1   TIME STEP  263
 SOLVING FOR ZETA FOR LAYER     1 ZONE     2

    6176 UPPER PART EQS.      6182 LOWER PART EQS.    BAND WIDTH + 1 =  100
 STRESS PERIOD=  1 TIMESTEP=263 LAYER=  1 ZONE=  2 ACTIVE CELLS=12358 NUMBER OF EQUATIONS=   12358
 
 SOLVING FOR HEAD 

 NO OUTPUT CONTROL FOR STRESS PERIOD    1   TIME STEP  264
 SOLVING FOR ZETA FOR LAYER     1 ZONE     2

    6196 UPPER PART EQS.      6182 LOWER PART EQS.    BAND WIDTH + 1 =  100
 STRESS PERIOD=  1 TIMESTEP=264 LAYER=  1 ZONE=  2 ACTIVE CELLS=12378 NUMBER OF EQUATIONS=   12378
 
 SOLVING FOR HEAD 

 NO OUTPUT CONTROL FOR STRESS PERIOD    1   TIME STEP  265
 SOLVING FOR ZETA FOR LAYER     1 ZONE     2

    6194 UPPER PART EQS.      6193 LOWER PART EQS.    BAND WIDTH + 1 =   99
 STRESS PERIOD=  1 TIMESTEP=265 LAYER=  1 ZONE=  2 ACTIVE CELLS=12387 NUMBER OF EQUATIONS=   12387
 
 SOLVING FOR HEAD 

 NO OUTPUT CONTROL FOR STRESS PERIOD    1   TIME STEP  266
 SOLVING FOR ZETA FOR LAYER     1 ZONE     2

    6185 UPPER PART EQS.      6184 LOWER PART EQS.    BAND WIDTH + 1 =  101
 STRESS PERIOD=  1 TIMESTEP=266 LAYER=  1 ZONE=  2 ACTIVE CELLS=12369 NUMBER OF EQUATIONS=   12369
 
 SOLVING FOR HEAD 

 NO OUTPUT CONTROL FOR STRESS PERIOD    1   TIME STEP  267
 SOLVING FOR ZETA FOR LAYER     1 ZONE     2

    6189 UPPER PART EQS.      6190 LOWER PART EQS.    BAND WIDTH + 1 =  101
 STRESS PERIOD=  1 TIMESTEP=267 LAYER=  1 ZONE=  2 ACTIVE CELLS=12379 NUMBER OF EQUATIONS=   12379
 
 SOLVING FOR HEAD 

 NO OUTPUT CONTROL FOR STRESS PERIOD    1   TIME STEP  268
 SOLVING FOR ZETA FOR LAYER     1 ZONE     2

    6195 UPPER PART EQS.      6192 LOWER PART EQS.    BAND WIDTH + 1 =  101
 STRESS PERIOD=  1 TIMESTEP=268 LAYER=  1 ZONE=  2 ACTIVE CELLS=12387 NUMBER OF EQUATIONS=   12387
 
 SOLVING FOR HEAD 

 NO OUTPUT CONTROL FOR STRESS PERIOD    1   TIME STEP  269
 SOLVING FOR ZETA FOR LAYER     1 ZONE     2

    6191 UPPER PART EQS.      6194 LOWER PART EQS.    BAND WIDTH + 1 =   99
 STRESS PERIOD=  1 TIMESTEP=269 LAYER=  1 ZONE=  2 ACTIVE CELLS=12385 NUMBER OF EQUATIONS=   12385
 
 SOLVING FOR HEAD 

 NO OUTPUT CONTROL FOR STRESS PERIOD    1   TIME STEP  270
 SOLVING FOR ZETA FOR LAYER     1 ZONE     2

    6191 UPPER PART EQS.      6195 LOWER PART EQS.    BAND WIDTH + 1 =  101
 STRESS PERIOD=  1 TIMESTEP=270 LAYER=  1 ZONE=  2 ACTIVE CELLS=12386 NUMBER OF EQUATIONS=   12386
 
 SOLVING FOR HEAD 

 NO OUTPUT CONTROL FOR STRESS PERIOD    1   TIME STEP  271
 SOLVING FOR ZETA FOR LAYER     1 ZONE     2

    6206 UPPER PART EQS.      6201 LOWER PART EQS.    BAND WIDTH + 1 =   99
 STRESS PERIOD=  1 TIMESTEP=271 LAYER=  1 ZONE=  2 ACTIVE CELLS=12407 NUMBER OF EQUATIONS=   12407
 
 SOLVING FOR HEAD 

 NO OUTPUT CONTROL FOR STRESS PERIOD    1   TIME STEP  272
 SOLVING FOR ZETA FOR LAYER     1 ZONE     2

    6201 UPPER PART EQS.      6196 LOWER PART EQS.    BAND WIDTH + 1 =   99
 STRESS PERIOD=  1 TIMESTEP=272 LAYER=  1 ZONE=  2 ACTIVE CELLS=12397 NUMBER OF EQUATIONS=   12397
 
 SOLVING FOR HEAD 

 NO OUTPUT CONTROL FOR STRESS PERIOD    1   TIME STEP  273
 SOLVING FOR ZETA FOR LAYER     1 ZONE     2

    6204 UPPER PART EQS.      6204 LOWER PART EQS.    BAND WIDTH + 1 =   99
 STRESS PERIOD=  1 TIMESTEP=273 LAYER=  1 ZONE=  2 ACTIVE CELLS=12408 NUMBER OF EQUATIONS=   12408
 
 SOLVING FOR HEAD 

 NO OUTPUT CONTROL FOR STRESS PERIOD    1   TIME STEP  274
 SOLVING FOR ZETA FOR LAYER     1 ZONE     2

    6207 UPPER PART EQS.      6201 LOWER PART EQS.    BAND WIDTH + 1 =  101
 STRESS PERIOD=  1 TIMESTEP=274 LAYER=  1 ZONE=  2 ACTIVE CELLS=12408 NUMBER OF EQUATIONS=   12408
 
 SOLVING FOR HEAD 

 NO OUTPUT CONTROL FOR STRESS PERIOD    1   TIME STEP  275
 SOLVING FOR ZETA FOR LAYER     1 ZONE     2

    6203 UPPER PART EQS.      6202 LOWER PART EQS.    BAND WIDTH + 1 =   99
 STRESS PERIOD=  1 TIMESTEP=275 LAYER=  1 ZONE=  2 ACTIVE CELLS=12405 NUMBER OF EQUATIONS=   12405
 
 SOLVING FOR HEAD 

 NO OUTPUT CONTROL FOR STRESS PERIOD    1   TIME STEP  276
 SOLVING FOR ZETA FOR LAYER     1 ZONE     2

    6204 UPPER PART EQS.      6200 LOWER PART EQS.    BAND WIDTH + 1 =  101
 STRESS PERIOD=  1 TIMESTEP=276 LAYER=  1 ZONE=  2 ACTIVE CELLS=12404 NUMBER OF EQUATIONS=   12404
 
 SOLVING FOR HEAD 

 NO OUTPUT CONTROL FOR STRESS PERIOD    1   TIME STEP  277
 SOLVING FOR ZETA FOR LAYER     1 ZONE     2

    6214 UPPER PART EQS.      6216 LOWER PART EQS.    BAND WIDTH + 1 =  101
 STRESS PERIOD=  1 TIMESTEP=277 LAYER=  1 ZONE=  2 ACTIVE CELLS=12430 NUMBER OF EQUATIONS=   12430
 
 SOLVING FOR HEAD 

 NO OUTPUT CONTROL FOR STRESS PERIOD    1   TIME STEP  278
 SOLVING FOR ZETA FOR LAYER     1 ZONE     2

    6207 UPPER PART EQS.      6203 LOWER PART EQS.    BAND WIDTH + 1 =  100
 STRESS PERIOD=  1 TIMESTEP=278 LAYER=  1 ZONE=  2 ACTIVE CELLS=12410 NUMBER OF EQUATIONS=   12410
 
 SOLVING FOR HEAD 

 NO OUTPUT CONTROL FOR STRESS PERIOD    1   TIME STEP  279
 SOLVING FOR ZETA FOR LAYER     1 ZONE     2

    6211 UPPER PART EQS.      6214 LOWER PART EQS.    BAND WIDTH + 1 =  100
 STRESS PERIOD=  1 TIMESTEP=279 LAYER=  1 ZONE=  2 ACTIVE CELLS=12425 NUMBER OF EQUATIONS=   12425
 
 SOLVING FOR HEAD 

 OUTPUT CONTROL FOR STRESS PERIOD    1   TIME STEP  280
    SAVE HEAD FOR ALL LAYERS
    PRINT BUDGET
 SOLVING FOR ZETA FOR LAYER     1 ZONE     2

    6217 UPPER PART EQS.      6210 LOWER PART EQS.    BAND WIDTH + 1 =  100
 STRESS PERIOD=  1 TIMESTEP=280 LAYER=  1 ZONE=  2 ACTIVE CELLS=12427 NUMBER OF EQUATIONS=   12427
 UBUDSV SAVING "      ZETASRF  1" ON UNIT 55 AT TIME STEP280, STRESS PERIOD    1


                      VOLUMETRIC SWI ZONE BUDGET FOR ENTIRE MODEL
                     AT END OF TIME STEP  280 IN STRESS PERIOD   1
                                      ZONE     1
  -----------------------------------------------------------------------------------

        CUMULATIVE VOLUMES      L**3       RATES FOR THIS TIME STEP      L**3/T
        ------------------                 ------------------------

              IN:                                      IN:
              ---                                      ---
             BOUNDARIES = 84107632640.0000            BOUNDARIES =      822695.3750
          CONSTANT HEAD =           0.0000         CONSTANT HEAD =           0.0000
            ZONE CHANGE =  2414581504.0000           ZONE CHANGE =        4107.6680
       ZONE CHG TIP/TOE =    17218668.0000      ZONE CHG TIP/TOE =          24.7624
            ZONE MIXING =           0.0000           ZONE MIXING =           0.0000

               TOTAL IN = 86539436032.0000              TOTAL IN =      826827.8125

             OUT:                                     OUT:
             ----                                     ----
             BOUNDARIES =           0.0000            BOUNDARIES =           0.0000
          CONSTANT HEAD = 76274720768.0000         CONSTANT HEAD =      826228.2500
            ZONE CHANGE = 25701091328.0000           ZONE CHANGE =       85761.6406
       ZONE CHG TIP/TOE =    13569937.0000      ZONE CHG TIP/TOE =          26.0527
            ZONE MIXING =           0.0000           ZONE MIXING =           0.0000

              TOTAL OUT =101989376000.0000             TOTAL OUT =      912015.9375

               IN - OUT =-15449939968.0000              IN - OUT =      -85188.1250

    PERCENT DISCREPANCY =         -16.39     PERCENT DISCREPANCY =          -9.80



                      VOLUMETRIC SWI ZONE BUDGET FOR ENTIRE MODEL
                     AT END OF TIME STEP  280 IN STRESS PERIOD   1
                                      ZONE     2
  -----------------------------------------------------------------------------------

        CUMULATIVE VOLUMES      L**3       RATES FOR THIS TIME STEP      L**3/T
        ------------------                 ------------------------

              IN:                                      IN:
              ---                                      ---
             BOUNDARIES =    29594638.0000            BOUNDARIES =           0.0000
          CONSTANT HEAD =   501728128.0000         CONSTANT HEAD =        3532.8748
            ZONE CHANGE = 25701091328.0000           ZONE CHANGE =       85761.6406
       ZONE CHG TIP/TOE =  1819317760.0000      ZONE CHG TIP/TOE =        1038.9299
            ZONE MIXING =           0.0000           ZONE MIXING =           0.0000

               TOTAL IN = 28051732480.0000              TOTAL IN =       90333.4453

             OUT:                                     OUT:
             ----                                     ----
             BOUNDARIES =           0.0000            BOUNDARIES =           0.0000
          CONSTANT HEAD =  8364093440.0000         CONSTANT HEAD =           0.0000
            ZONE CHANGE =  4220329472.0000           ZONE CHANGE =        5120.5454
       ZONE CHG TIP/TOE =    17218668.0000      ZONE CHG TIP/TOE =          24.7624
            ZONE MIXING =           0.0000           ZONE MIXING =           0.0000

              TOTAL OUT = 12601641984.0000             TOTAL OUT =        5145.3076

               IN - OUT = 15450090496.0000              IN - OUT =       85188.1406

    PERCENT DISCREPANCY =          76.01     PERCENT DISCREPANCY =         178.44


 HEAD WILL BE SAVED ON UNIT   51 AT END OF TIME STEP  280, STRESS PERIOD    1
1
  VOLUMETRIC BUDGET FOR ENTIRE MODEL AT END OF TIME STEP  280, STRESS PERIOD   1
  ------------------------------------------------------------------------------

     CUMULATIVE VOLUMES      L**3       RATES FOR THIS TIME STEP      L**3/T
     ------------------                 ------------------------

           IN:                                      IN:
           ---                                      ---
             STORAGE =           0.0000               STORAGE =           0.0000
       CONSTANT HEAD =  1259017088.0000         CONSTANT HEAD =           0.0000
          SWIADDTOCH =418434940928.0000            SWIADDTOCH =     3180781.0000
            RECHARGE = 84137230336.0000              RECHARGE =      822695.3750

            TOTAL IN =503831199744.0000              TOTAL IN =     4003476.5000

          OUT:                                     OUT:
          ----                                     ----
             STORAGE =           0.0000               STORAGE =           0.0000
       CONSTANT HEAD =502324953088.0000         CONSTANT HEAD =     4001707.7500
          SWIADDTOCH =  1505675392.0000            SWIADDTOCH =        1768.7941
            RECHARGE =           0.0000              RECHARGE =           0.0000

           TOTAL OUT =503830642688.0000             TOTAL OUT =     4003476.5000

            IN - OUT =      557056.0000              IN - OUT =           0.0000

 PERCENT DISCREPANCY =           0.00     PERCENT DISCREPANCY =           0.00






         TIME SUMMARY AT END OF TIME STEP  280 IN STRESS PERIOD    1
                    SECONDS     MINUTES      HOURS       DAYS        YEARS
                    -----------------------------------------------------------
   TIME STEP LENGTH 3.15576E+07 5.25960E+05  8766.0      365.25      1.0000    
 STRESS PERIOD TIME 8.83613E+09 1.47269E+08 2.45448E+06 1.02270E+05  280.00    
         TOTAL TIME 8.83613E+09 1.47269E+08 2.45448E+06 1.02270E+05  280.00    
1
 
 SOLVING FOR HEAD 

 NO OUTPUT CONTROL FOR STRESS PERIOD    1   TIME STEP  281
 SOLVING FOR ZETA FOR LAYER     1 ZONE     2

    6213 UPPER PART EQS.      6214 LOWER PART EQS.    BAND WIDTH + 1 =   99
 STRESS PERIOD=  1 TIMESTEP=281 LAYER=  1 ZONE=  2 ACTIVE CELLS=12427 NUMBER OF EQUATIONS=   12427
 
 SOLVING FOR HEAD 

 NO OUTPUT CONTROL FOR STRESS PERIOD    1   TIME STEP  282
 SOLVING FOR ZETA FOR LAYER     1 ZONE     2

    6213 UPPER PART EQS.      6212 LOWER PART EQS.    BAND WIDTH + 1 =  100
 STRESS PERIOD=  1 TIMESTEP=282 LAYER=  1 ZONE=  2 ACTIVE CELLS=12425 NUMBER OF EQUATIONS=   12425
 
 SOLVING FOR HEAD 

 NO OUTPUT CONTROL FOR STRESS PERIOD    1   TIME STEP  283
 SOLVING FOR ZETA FOR LAYER     1 ZONE     2

    6214 UPPER PART EQS.      6214 LOWER PART EQS.    BAND WIDTH + 1 =  101
 STRESS PERIOD=  1 TIMESTEP=283 LAYER=  1 ZONE=  2 ACTIVE CELLS=12428 NUMBER OF EQUATIONS=   12428
 
 SOLVING FOR HEAD 

 NO OUTPUT CONTROL FOR STRESS PERIOD    1   TIME STEP  284
 SOLVING FOR ZETA FOR LAYER     1 ZONE     2

    6220 UPPER PART EQS.      6217 LOWER PART EQS.    BAND WIDTH + 1 =  100
 STRESS PERIOD=  1 TIMESTEP=284 LAYER=  1 ZONE=  2 ACTIVE CELLS=12437 NUMBER OF EQUATIONS=   12437
 
 SOLVING FOR HEAD 

 NO OUTPUT CONTROL FOR STRESS PERIOD    1   TIME STEP  285
 SOLVING FOR ZETA FOR LAYER     1 ZONE     2

    6217 UPPER PART EQS.      6219 LOWER PART EQS.    BAND WIDTH + 1 =   99
 STRESS PERIOD=  1 TIMESTEP=285 LAYER=  1 ZONE=  2 ACTIVE CELLS=12436 NUMBER OF EQUATIONS=   12436
 
 SOLVING FOR HEAD 

 NO OUTPUT CONTROL FOR STRESS PERIOD    1   TIME STEP  286
 SOLVING FOR ZETA FOR LAYER     1 ZONE     2

    6216 UPPER PART EQS.      6208 LOWER PART EQS.    BAND WIDTH + 1 =  100
 STRESS PERIOD=  1 TIMESTEP=286 LAYER=  1 ZONE=  2 ACTIVE CELLS=12424 NUMBER OF EQUATIONS=   12424
 
 SOLVING FOR HEAD 

 NO OUTPUT CONTROL FOR STRESS PERIOD    1   TIME STEP  287
 SOLVING FOR ZETA FOR LAYER     1 ZONE     2

    6207 UPPER PART EQS.      6211 LOWER PART EQS.    BAND WIDTH + 1 =   99
 STRESS PERIOD=  1 TIMESTEP=287 LAYER=  1 ZONE=  2 ACTIVE CELLS=12418 NUMBER OF EQUATIONS=   12418
 
 SOLVING FOR HEAD 

 NO OUTPUT CONTROL FOR STRESS PERIOD    1   TIME STEP  288
 SOLVING FOR ZETA FOR LAYER     1 ZONE     2

    6219 UPPER PART EQS.      6218 LOWER PART EQS.    BAND WIDTH + 1 =  104
 STRESS PERIOD=  1 TIMESTEP=288 LAYER=  1 ZONE=  2 ACTIVE CELLS=12437 NUMBER OF EQUATIONS=   12437
 
 SOLVING FOR HEAD 

 NO OUTPUT CONTROL FOR STRESS PERIOD    1   TIME STEP  289
 SOLVING FOR ZETA FOR LAYER     1 ZONE     2

    6214 UPPER PART EQS.      6218 LOWER PART EQS.    BAND WIDTH + 1 =   99
 STRESS PERIOD=  1 TIMESTEP=289 LAYER=  1 ZONE=  2 ACTIVE CELLS=12432 NUMBER OF EQUATIONS=   12432
 
 SOLVING FOR HEAD 

 NO OUTPUT CONTROL FOR STRESS PERIOD    1   TIME STEP  290
 SOLVING FOR ZETA FOR LAYER     1 ZONE     2

    6217 UPPER PART EQS.      6218 LOWER PART EQS.    BAND WIDTH + 1 =  101
 STRESS PERIOD=  1 TIMESTEP=290 LAYER=  1 ZONE=  2 ACTIVE CELLS=12435 NUMBER OF EQUATIONS=   12435
 
 SOLVING FOR HEAD 

 NO OUTPUT CONTROL FOR STRESS PERIOD    1   TIME STEP  291
 SOLVING FOR ZETA FOR LAYER     1 ZONE     2

    6224 UPPER PART EQS.      6225 LOWER PART EQS.    BAND WIDTH + 1 =  101
 STRESS PERIOD=  1 TIMESTEP=291 LAYER=  1 ZONE=  2 ACTIVE CELLS=12449 NUMBER OF EQUATIONS=   12449
 
 SOLVING FOR HEAD 

 NO OUTPUT CONTROL FOR STRESS PERIOD    1   TIME STEP  292
 SOLVING FOR ZETA FOR LAYER     1 ZONE     2

    6220 UPPER PART EQS.      6217 LOWER PART EQS.    BAND WIDTH + 1 =  100
 STRESS PERIOD=  1 TIMESTEP=292 LAYER=  1 ZONE=  2 ACTIVE CELLS=12437 NUMBER OF EQUATIONS=   12437
 
 SOLVING FOR HEAD 

 NO OUTPUT CONTROL FOR STRESS PERIOD    1   TIME STEP  293
 SOLVING FOR ZETA FOR LAYER     1 ZONE     2

    6221 UPPER PART EQS.      6220 LOWER PART EQS.    BAND WIDTH + 1 =   99
 STRESS PERIOD=  1 TIMESTEP=293 LAYER=  1 ZONE=  2 ACTIVE CELLS=12441 NUMBER OF EQUATIONS=   12441
 
 SOLVING FOR HEAD 

 NO OUTPUT CONTROL FOR STRESS PERIOD    1   TIME STEP  294
 SOLVING FOR ZETA FOR LAYER     1 ZONE     2

    6226 UPPER PART EQS.      6221 LOWER PART EQS.    BAND WIDTH + 1 =  101
 STRESS PERIOD=  1 TIMESTEP=294 LAYER=  1 ZONE=  2 ACTIVE CELLS=12447 NUMBER OF EQUATIONS=   12447
 
 SOLVING FOR HEAD 

 NO OUTPUT CONTROL FOR STRESS PERIOD    1   TIME STEP  295
 SOLVING FOR ZETA FOR LAYER     1 ZONE     2

    6225 UPPER PART EQS.      6224 LOWER PART EQS.    BAND WIDTH + 1 =  100
 STRESS PERIOD=  1 TIMESTEP=295 LAYER=  1 ZONE=  2 ACTIVE CELLS=12449 NUMBER OF EQUATIONS=   12449
 
 SOLVING FOR HEAD 

 NO OUTPUT CONTROL FOR STRESS PERIOD    1   TIME STEP  296
 SOLVING FOR ZETA FOR LAYER     1 ZONE     2

    6228 UPPER PART EQS.      6223 LOWER PART EQS.    BAND WIDTH + 1 =   99
 STRESS PERIOD=  1 TIMESTEP=296 LAYER=  1 ZONE=  2 ACTIVE CELLS=12451 NUMBER OF EQUATIONS=   12451
 
 SOLVING FOR HEAD 

 NO OUTPUT CONTROL FOR STRESS PERIOD    1   TIME STEP  297
 SOLVING FOR ZETA FOR LAYER     1 ZONE     2

    6225 UPPER PART EQS.      6231 LOWER PART EQS.    BAND WIDTH + 1 =  102
 STRESS PERIOD=  1 TIMESTEP=297 LAYER=  1 ZONE=  2 ACTIVE CELLS=12456 NUMBER OF EQUATIONS=   12456
 
 SOLVING FOR HEAD 

 NO OUTPUT CONTROL FOR STRESS PERIOD    1   TIME STEP  298
 SOLVING FOR ZETA FOR LAYER     1 ZONE     2

    6227 UPPER PART EQS.      6225 LOWER PART EQS.    BAND WIDTH + 1 =   99
 STRESS PERIOD=  1 TIMESTEP=298 LAYER=  1 ZONE=  2 ACTIVE CELLS=12452 NUMBER OF EQUATIONS=   12452
 
 SOLVING FOR HEAD 

 NO OUTPUT CONTROL FOR STRESS PERIOD    1   TIME STEP  299
 SOLVING FOR ZETA FOR LAYER     1 ZONE     2

    6231 UPPER PART EQS.      6227 LOWER PART EQS.    BAND WIDTH + 1 =   99
 STRESS PERIOD=  1 TIMESTEP=299 LAYER=  1 ZONE=  2 ACTIVE CELLS=12458 NUMBER OF EQUATIONS=   12458
 
 SOLVING FOR HEAD 

 OUTPUT CONTROL FOR STRESS PERIOD    1   TIME STEP  300
    SAVE HEAD FOR ALL LAYERS
    PRINT BUDGET
 SOLVING FOR ZETA FOR LAYER     1 ZONE     2

    6231 UPPER PART EQS.      6227 LOWER PART EQS.    BAND WIDTH + 1 =  100
 STRESS PERIOD=  1 TIMESTEP=300 LAYER=  1 ZONE=  2 ACTIVE CELLS=12458 NUMBER OF EQUATIONS=   12458
 UBUDSV SAVING "      ZETASRF  1" ON UNIT 55 AT TIME STEP300, STRESS PERIOD    1


                      VOLUMETRIC SWI ZONE BUDGET FOR ENTIRE MODEL
                     AT END OF TIME STEP  300 IN STRESS PERIOD   1
                                      ZONE     1
  -----------------------------------------------------------------------------------

        CUMULATIVE VOLUMES      L**3       RATES FOR THIS TIME STEP      L**3/T
        ------------------                 ------------------------

              IN:                                      IN:
              ---                                      ---
             BOUNDARIES = 90117447680.0000            BOUNDARIES =      822695.3750
          CONSTANT HEAD =           0.0000         CONSTANT HEAD =           0.0000
            ZONE CHANGE =  2435267840.0000           ZONE CHANGE =        1658.2290
       ZONE CHG TIP/TOE =    17404252.0000      ZONE CHG TIP/TOE =          19.5865
            ZONE MIXING =           0.0000           ZONE MIXING =           0.0000

               TOTAL IN = 92570124288.0000              TOTAL IN =      824373.1875

             OUT:                                     OUT:
             ----                                     ----
             BOUNDARIES =           0.0000            BOUNDARIES =           0.0000
          CONSTANT HEAD = 82302697472.0000         CONSTANT HEAD =      825506.8125
            ZONE CHANGE = 26306615296.0000           ZONE CHANGE =       78046.5234
       ZONE CHG TIP/TOE =    13762198.0000      ZONE CHG TIP/TOE =          22.8875
            ZONE MIXING =           0.0000           ZONE MIXING =           0.0000

              TOTAL OUT =108623077376.0000             TOTAL OUT =      903576.1875

               IN - OUT =-16052953088.0000              IN - OUT =      -79203.0000

    PERCENT DISCREPANCY =         -15.96     PERCENT DISCREPANCY =          -9.17



                      VOLUMETRIC SWI ZONE BUDGET FOR ENTIRE MODEL
                     AT END OF TIME STEP  300 IN STRESS PERIOD   1
                                      ZONE     2
  -----------------------------------------------------------------------------------

        CUMULATIVE VOLUMES      L**3       RATES FOR THIS TIME STEP      L**3/T
        ------------------                 ------------------------

              IN:                                      IN:
              ---                                      ---
             BOUNDARIES =    29594638.0000            BOUNDARIES =           0.0000
          CONSTANT HEAD =   525500256.0000         CONSTANT HEAD =        3039.0991
            ZONE CHANGE = 26306615296.0000           ZONE CHANGE =       78046.5234
       ZONE CHG TIP/TOE =  1827214080.0000      ZONE CHG TIP/TOE =        1053.2614
            ZONE MIXING =           0.0000           ZONE MIXING =           0.0000

               TOTAL IN = 28688922624.0000              TOTAL IN =       82138.8828

             OUT:                                     OUT:
             ----                                     ----
             BOUNDARIES =           0.0000            BOUNDARIES =           0.0000
          CONSTANT HEAD =  8369687552.0000         CONSTANT HEAD =         227.7214
            ZONE CHANGE =  4248719616.0000           ZONE CHANGE =        2688.6028
       ZONE CHG TIP/TOE =    17404252.0000      ZONE CHG TIP/TOE =          19.5865
            ZONE MIXING =           0.0000           ZONE MIXING =           0.0000

              TOTAL OUT = 12635810816.0000             TOTAL OUT =        2935.9106

               IN - OUT = 16053111808.0000              IN - OUT =       79202.9688

    PERCENT DISCREPANCY =          77.69     PERCENT DISCREPANCY =         186.20


 HEAD WILL BE SAVED ON UNIT   51 AT END OF TIME STEP  300, STRESS PERIOD    1
1
  VOLUMETRIC BUDGET FOR ENTIRE MODEL AT END OF TIME STEP  300, STRESS PERIOD   1
  ------------------------------------------------------------------------------

     CUMULATIVE VOLUMES      L**3       RATES FOR THIS TIME STEP      L**3/T
     ------------------                 ------------------------

           IN:                                      IN:
           ---                                      ---
             STORAGE =           0.0000               STORAGE =           0.0000
       CONSTANT HEAD =  1259017088.0000         CONSTANT HEAD =           0.0000
          SWIADDTOCH =441260933120.0000            SWIADDTOCH =     3073362.5000
            RECHARGE = 90147045376.0000              RECHARGE =      822695.3750

            TOTAL IN =532666974208.0000              TOTAL IN =     3896058.0000

          OUT:                                     OUT:
          ----                                     ----
             STORAGE =           0.0000               STORAGE =           0.0000
       CONSTANT HEAD =531148996608.0000         CONSTANT HEAD =     3894597.0000
          SWIADDTOCH =  1517363712.0000            SWIADDTOCH =        1460.8403
            RECHARGE =           0.0000              RECHARGE =           0.0000

           TOTAL OUT =532666351616.0000             TOTAL OUT =     3896057.7500

            IN - OUT =      622592.0000              IN - OUT =           0.2500

 PERCENT DISCREPANCY =           0.00     PERCENT DISCREPANCY =           0.00






         TIME SUMMARY AT END OF TIME STEP  300 IN STRESS PERIOD    1
                    SECONDS     MINUTES      HOURS       DAYS        YEARS
                    -----------------------------------------------------------
   TIME STEP LENGTH 3.15576E+07 5.25960E+05  8766.0      365.25      1.0000    
 STRESS PERIOD TIME 9.46728E+09 1.57788E+08 2.62980E+06 1.09575E+05  300.00    
         TOTAL TIME 9.46728E+09 1.57788E+08 2.62980E+06 1.09575E+05  300.00    
1
 
 SOLVING FOR HEAD 

 NO OUTPUT CONTROL FOR STRESS PERIOD    1   TIME STEP  301
 SOLVING FOR ZETA FOR LAYER     1 ZONE     2

    6228 UPPER PART EQS.      6225 LOWER PART EQS.    BAND WIDTH + 1 =   99
 STRESS PERIOD=  1 TIMESTEP=301 LAYER=  1 ZONE=  2 ACTIVE CELLS=12453 NUMBER OF EQUATIONS=   12453
 
 SOLVING FOR HEAD 

 NO OUTPUT CONTROL FOR STRESS PERIOD    1   TIME STEP  302
 SOLVING FOR ZETA FOR LAYER     1 ZONE     2

    6233 UPPER PART EQS.      6228 LOWER PART EQS.    BAND WIDTH + 1 =  101
 STRESS PERIOD=  1 TIMESTEP=302 LAYER=  1 ZONE=  2 ACTIVE CELLS=12461 NUMBER OF EQUATIONS=   12461
 
 SOLVING FOR HEAD 

 NO OUTPUT CONTROL FOR STRESS PERIOD    1   TIME STEP  303
 SOLVING FOR ZETA FOR LAYER     1 ZONE     2

    6240 UPPER PART EQS.      6235 LOWER PART EQS.    BAND WIDTH + 1 =  100
 STRESS PERIOD=  1 TIMESTEP=303 LAYER=  1 ZONE=  2 ACTIVE CELLS=12475 NUMBER OF EQUATIONS=   12475
 
 SOLVING FOR HEAD 

 NO OUTPUT CONTROL FOR STRESS PERIOD    1   TIME STEP  304
 SOLVING FOR ZETA FOR LAYER     1 ZONE     2

    6235 UPPER PART EQS.      6226 LOWER PART EQS.    BAND WIDTH + 1 =  100
 STRESS PERIOD=  1 TIMESTEP=304 LAYER=  1 ZONE=  2 ACTIVE CELLS=12461 NUMBER OF EQUATIONS=   12461
 
 SOLVING FOR HEAD 

 NO OUTPUT CONTROL FOR STRESS PERIOD    1   TIME STEP  305
 SOLVING FOR ZETA FOR LAYER     1 ZONE     2

    6233 UPPER PART EQS.      6234 LOWER PART EQS.    BAND WIDTH + 1 =   99
 STRESS PERIOD=  1 TIMESTEP=305 LAYER=  1 ZONE=  2 ACTIVE CELLS=12467 NUMBER OF EQUATIONS=   12467
 
 SOLVING FOR HEAD 

 NO OUTPUT CONTROL FOR STRESS PERIOD    1   TIME STEP  306
 SOLVING FOR ZETA FOR LAYER     1 ZONE     2

    6239 UPPER PART EQS.      6233 LOWER PART EQS.    BAND WIDTH + 1 =  100
 STRESS PERIOD=  1 TIMESTEP=306 LAYER=  1 ZONE=  2 ACTIVE CELLS=12472 NUMBER OF EQUATIONS=   12472
 
 SOLVING FOR HEAD 

 NO OUTPUT CONTROL FOR STRESS PERIOD    1   TIME STEP  307
 SOLVING FOR ZETA FOR LAYER     1 ZONE     2

    6232 UPPER PART EQS.      6231 LOWER PART EQS.    BAND WIDTH + 1 =   99
 STRESS PERIOD=  1 TIMESTEP=307 LAYER=  1 ZONE=  2 ACTIVE CELLS=12463 NUMBER OF EQUATIONS=   12463
 
 SOLVING FOR HEAD 

 NO OUTPUT CONTROL FOR STRESS PERIOD    1   TIME STEP  308
 SOLVING FOR ZETA FOR LAYER     1 ZONE     2

    6239 UPPER PART EQS.      6234 LOWER PART EQS.    BAND WIDTH + 1 =  100
 STRESS PERIOD=  1 TIMESTEP=308 LAYER=  1 ZONE=  2 ACTIVE CELLS=12473 NUMBER OF EQUATIONS=   12473
 
 SOLVING FOR HEAD 

 NO OUTPUT CONTROL FOR STRESS PERIOD    1   TIME STEP  309
 SOLVING FOR ZETA FOR LAYER     1 ZONE     2

    6240 UPPER PART EQS.      6242 LOWER PART EQS.    BAND WIDTH + 1 =  100
 STRESS PERIOD=  1 TIMESTEP=309 LAYER=  1 ZONE=  2 ACTIVE CELLS=12482 NUMBER OF EQUATIONS=   12482
 
 SOLVING FOR HEAD 

 NO OUTPUT CONTROL FOR STRESS PERIOD    1   TIME STEP  310
 SOLVING FOR ZETA FOR LAYER     1 ZONE     2

    6237 UPPER PART EQS.      6230 LOWER PART EQS.    BAND WIDTH + 1 =   99
 STRESS PERIOD=  1 TIMESTEP=310 LAYER=  1 ZONE=  2 ACTIVE CELLS=12467 NUMBER OF EQUATIONS=   12467
 
 SOLVING FOR HEAD 

 NO OUTPUT CONTROL FOR STRESS PERIOD    1   TIME STEP  311
 SOLVING FOR ZETA FOR LAYER     1 ZONE     2

    6239 UPPER PART EQS.      6240 LOWER PART EQS.    BAND WIDTH + 1 =  100
 STRESS PERIOD=  1 TIMESTEP=311 LAYER=  1 ZONE=  2 ACTIVE CELLS=12479 NUMBER OF EQUATIONS=   12479
 
 SOLVING FOR HEAD 

 NO OUTPUT CONTROL FOR STRESS PERIOD    1   TIME STEP  312
 SOLVING FOR ZETA FOR LAYER     1 ZONE     2

    6244 UPPER PART EQS.      6234 LOWER PART EQS.    BAND WIDTH + 1 =  100
 STRESS PERIOD=  1 TIMESTEP=312 LAYER=  1 ZONE=  2 ACTIVE CELLS=12478 NUMBER OF EQUATIONS=   12478
 
 SOLVING FOR HEAD 

 NO OUTPUT CONTROL FOR STRESS PERIOD    1   TIME STEP  313
 SOLVING FOR ZETA FOR LAYER     1 ZONE     2

    6238 UPPER PART EQS.      6236 LOWER PART EQS.    BAND WIDTH + 1 =   99
 STRESS PERIOD=  1 TIMESTEP=313 LAYER=  1 ZONE=  2 ACTIVE CELLS=12474 NUMBER OF EQUATIONS=   12474
 
 SOLVING FOR HEAD 

 NO OUTPUT CONTROL FOR STRESS PERIOD    1   TIME STEP  314
 SOLVING FOR ZETA FOR LAYER     1 ZONE     2

    6243 UPPER PART EQS.      6231 LOWER PART EQS.    BAND WIDTH + 1 =   99
 STRESS PERIOD=  1 TIMESTEP=314 LAYER=  1 ZONE=  2 ACTIVE CELLS=12474 NUMBER OF EQUATIONS=   12474
 
 SOLVING FOR HEAD 

 NO OUTPUT CONTROL FOR STRESS PERIOD    1   TIME STEP  315
 SOLVING FOR ZETA FOR LAYER     1 ZONE     2

    6249 UPPER PART EQS.      6247 LOWER PART EQS.    BAND WIDTH + 1 =  100
 STRESS PERIOD=  1 TIMESTEP=315 LAYER=  1 ZONE=  2 ACTIVE CELLS=12496 NUMBER OF EQUATIONS=   12496
 
 SOLVING FOR HEAD 

 NO OUTPUT CONTROL FOR STRESS PERIOD    1   TIME STEP  316
 SOLVING FOR ZETA FOR LAYER     1 ZONE     2

    6245 UPPER PART EQS.      6236 LOWER PART EQS.    BAND WIDTH + 1 =  100
 STRESS PERIOD=  1 TIMESTEP=316 LAYER=  1 ZONE=  2 ACTIVE CELLS=12481 NUMBER OF EQUATIONS=   12481
 
 SOLVING FOR HEAD 

 NO OUTPUT CONTROL FOR STRESS PERIOD    1   TIME STEP  317
 SOLVING FOR ZETA FOR LAYER     1 ZONE     2

    6246 UPPER PART EQS.      6245 LOWER PART EQS.    BAND WIDTH + 1 =   99
 STRESS PERIOD=  1 TIMESTEP=317 LAYER=  1 ZONE=  2 ACTIVE CELLS=12491 NUMBER OF EQUATIONS=   12491
 
 SOLVING FOR HEAD 

 NO OUTPUT CONTROL FOR STRESS PERIOD    1   TIME STEP  318
 SOLVING FOR ZETA FOR LAYER     1 ZONE     2

    6253 UPPER PART EQS.      6242 LOWER PART EQS.    BAND WIDTH + 1 =  100
 STRESS PERIOD=  1 TIMESTEP=318 LAYER=  1 ZONE=  2 ACTIVE CELLS=12495 NUMBER OF EQUATIONS=   12495
 
 SOLVING FOR HEAD 

 NO OUTPUT CONTROL FOR STRESS PERIOD    1   TIME STEP  319
 SOLVING FOR ZETA FOR LAYER     1 ZONE     2

    6248 UPPER PART EQS.      6250 LOWER PART EQS.    BAND WIDTH + 1 =  101
 STRESS PERIOD=  1 TIMESTEP=319 LAYER=  1 ZONE=  2 ACTIVE CELLS=12498 NUMBER OF EQUATIONS=   12498
 
 SOLVING FOR HEAD 

 OUTPUT CONTROL FOR STRESS PERIOD    1   TIME STEP  320
    SAVE HEAD FOR ALL LAYERS
    PRINT BUDGET
 SOLVING FOR ZETA FOR LAYER     1 ZONE     2

    6260 UPPER PART EQS.      6244 LOWER PART EQS.    BAND WIDTH + 1 =  101
 STRESS PERIOD=  1 TIMESTEP=320 LAYER=  1 ZONE=  2 ACTIVE CELLS=12504 NUMBER OF EQUATIONS=   12504
 UBUDSV SAVING "      ZETASRF  1" ON UNIT 55 AT TIME STEP320, STRESS PERIOD    1


                      VOLUMETRIC SWI ZONE BUDGET FOR ENTIRE MODEL
                     AT END OF TIME STEP  320 IN STRESS PERIOD   1
                                      ZONE     1
  -----------------------------------------------------------------------------------

        CUMULATIVE VOLUMES      L**3       RATES FOR THIS TIME STEP      L**3/T
        ------------------                 ------------------------

              IN:                                      IN:
              ---                                      ---
             BOUNDARIES = 96127262720.0000            BOUNDARIES =      822695.3750
          CONSTANT HEAD =           0.0000         CONSTANT HEAD =           0.0000
            ZONE CHANGE =  2448383744.0000           ZONE CHANGE =         948.5655
       ZONE CHG TIP/TOE =    17560900.0000      ZONE CHG TIP/TOE =          17.7182
            ZONE MIXING =           0.0000           ZONE MIXING =           0.0000

               TOTAL IN = 98593210368.0000              TOTAL IN =      823661.6250

             OUT:                                     OUT:
             ----                                     ----
             BOUNDARIES =           0.0000            BOUNDARIES =           0.0000
          CONSTANT HEAD = 88332255232.0000         CONSTANT HEAD =      825225.0000
            ZONE CHANGE = 26849398784.0000           ZONE CHANGE =       73437.0000
       ZONE CHG TIP/TOE =    13923252.0000      ZONE CHG TIP/TOE =          19.6923
            ZONE MIXING =           0.0000           ZONE MIXING =           0.0000

              TOTAL OUT =115195576320.0000             TOTAL OUT =      898681.6875

               IN - OUT =-16602365952.0000              IN - OUT =      -75020.0625

    PERCENT DISCREPANCY =         -15.53     PERCENT DISCREPANCY =          -8.71



                      VOLUMETRIC SWI ZONE BUDGET FOR ENTIRE MODEL
                     AT END OF TIME STEP  320 IN STRESS PERIOD   1
                                      ZONE     2
  -----------------------------------------------------------------------------------

        CUMULATIVE VOLUMES      L**3       RATES FOR THIS TIME STEP      L**3/T
        ------------------                 ------------------------

              IN:                                      IN:
              ---                                      ---
             BOUNDARIES =    29594638.0000            BOUNDARIES =           0.0000
          CONSTANT HEAD =   546336128.0000         CONSTANT HEAD =        2699.8167
            ZONE CHANGE = 26849398784.0000           ZONE CHANGE =       73437.0000
       ZONE CHG TIP/TOE =  1834719232.0000      ZONE CHG TIP/TOE =         590.5656
            ZONE MIXING =           0.0000           ZONE MIXING =           0.0000

               TOTAL IN = 29260048384.0000              TOTAL IN =       76727.3828

             OUT:                                     OUT:
             ----                                     ----
             BOUNDARIES =           0.0000            BOUNDARIES =           0.0000
          CONSTANT HEAD =  8370750464.0000         CONSTANT HEAD =         170.2007
            ZONE CHANGE =  4269180672.0000           ZONE CHANGE =        1519.4387
       ZONE CHG TIP/TOE =    17560900.0000      ZONE CHG TIP/TOE =          17.7182
            ZONE MIXING =           0.0000           ZONE MIXING =           0.0000

              TOTAL OUT = 12657491968.0000             TOTAL OUT =        1707.3577

               IN - OUT = 16602556416.0000              IN - OUT =       75020.0234

    PERCENT DISCREPANCY =          79.22     PERCENT DISCREPANCY =         191.29


 HEAD WILL BE SAVED ON UNIT   51 AT END OF TIME STEP  320, STRESS PERIOD    1
1
  VOLUMETRIC BUDGET FOR ENTIRE MODEL AT END OF TIME STEP  320, STRESS PERIOD   1
  ------------------------------------------------------------------------------

     CUMULATIVE VOLUMES      L**3       RATES FOR THIS TIME STEP      L**3/T
     ------------------                 ------------------------

           IN:                                      IN:
           ---                                      ---
             STORAGE =           0.0000               STORAGE =           0.0000
       CONSTANT HEAD =  1259017088.0000         CONSTANT HEAD =           0.0000
          SWIADDTOCH =463353643008.0000            SWIADDTOCH =     2982109.7500
            RECHARGE = 96156860416.0000              RECHARGE =      822695.3750

            TOTAL IN =560769531904.0000              TOTAL IN =     3804805.0000

          OUT:                                     OUT:
          ----                                     ----
             STORAGE =           0.0000               STORAGE =           0.0000
       CONSTANT HEAD =559241560064.0000         CONSTANT HEAD =     3803492.5000
          SWIADDTOCH =  1527285504.0000            SWIADDTOCH =        1312.5140
            RECHARGE =           0.0000              RECHARGE =           0.0000

           TOTAL OUT =560768876544.0000             TOTAL OUT =     3804805.0000

            IN - OUT =      655360.0000              IN - OUT =           0.0000

 PERCENT DISCREPANCY =           0.00     PERCENT DISCREPANCY =           0.00






         TIME SUMMARY AT END OF TIME STEP  320 IN STRESS PERIOD    1
                    SECONDS     MINUTES      HOURS       DAYS        YEARS
                    -----------------------------------------------------------
   TIME STEP LENGTH 3.15576E+07 5.25960E+05  8766.0      365.25      1.0000    
 STRESS PERIOD TIME 1.00984E+10 1.68307E+08 2.80512E+06 1.16880E+05  320.00    
         TOTAL TIME 1.00984E+10 1.68307E+08 2.80512E+06 1.16880E+05  320.00    
1
 
 SOLVING FOR HEAD 

 NO OUTPUT CONTROL FOR STRESS PERIOD    1   TIME STEP  321
 SOLVING FOR ZETA FOR LAYER     1 ZONE     2

    6251 UPPER PART EQS.      6254 LOWER PART EQS.    BAND WIDTH + 1 =  101
 STRESS PERIOD=  1 TIMESTEP=321 LAYER=  1 ZONE=  2 ACTIVE CELLS=12505 NUMBER OF EQUATIONS=   12505
 
 SOLVING FOR HEAD 

 NO OUTPUT CONTROL FOR STRESS PERIOD    1   TIME STEP  322
 SOLVING FOR ZETA FOR LAYER     1 ZONE     2

    6254 UPPER PART EQS.      6240 LOWER PART EQS.    BAND WIDTH + 1 =  100
 STRESS PERIOD=  1 TIMESTEP=322 LAYER=  1 ZONE=  2 ACTIVE CELLS=12494 NUMBER OF EQUATIONS=   12494
 
 SOLVING FOR HEAD 

 NO OUTPUT CONTROL FOR STRESS PERIOD    1   TIME STEP  323
 SOLVING FOR ZETA FOR LAYER     1 ZONE     2

    6248 UPPER PART EQS.      6254 LOWER PART EQS.    BAND WIDTH + 1 =  103
 STRESS PERIOD=  1 TIMESTEP=323 LAYER=  1 ZONE=  2 ACTIVE CELLS=12502 NUMBER OF EQUATIONS=   12502
 
 SOLVING FOR HEAD 

 NO OUTPUT CONTROL FOR STRESS PERIOD    1   TIME STEP  324
 SOLVING FOR ZETA FOR LAYER     1 ZONE     2

    6261 UPPER PART EQS.      6249 LOWER PART EQS.    BAND WIDTH + 1 =  101
 STRESS PERIOD=  1 TIMESTEP=324 LAYER=  1 ZONE=  2 ACTIVE CELLS=12510 NUMBER OF EQUATIONS=   12510
 
 SOLVING FOR HEAD 

 NO OUTPUT CONTROL FOR STRESS PERIOD    1   TIME STEP  325
 SOLVING FOR ZETA FOR LAYER     1 ZONE     2

    6250 UPPER PART EQS.      6256 LOWER PART EQS.    BAND WIDTH + 1 =  102
 STRESS PERIOD=  1 TIMESTEP=325 LAYER=  1 ZONE=  2 ACTIVE CELLS=12506 NUMBER OF EQUATIONS=   12506
 
 SOLVING FOR HEAD 

 NO OUTPUT CONTROL FOR STRESS PERIOD    1   TIME STEP  326
 SOLVING FOR ZETA FOR LAYER     1 ZONE     2

    6255 UPPER PART EQS.      6246 LOWER PART EQS.    BAND WIDTH + 1 =   99
 STRESS PERIOD=  1 TIMESTEP=326 LAYER=  1 ZONE=  2 ACTIVE CELLS=12501 NUMBER OF EQUATIONS=   12501
 
 SOLVING FOR HEAD 

 NO OUTPUT CONTROL FOR STRESS PERIOD    1   TIME STEP  327
 SOLVING FOR ZETA FOR LAYER     1 ZONE     2

    6254 UPPER PART EQS.      6259 LOWER PART EQS.    BAND WIDTH + 1 =  102
 STRESS PERIOD=  1 TIMESTEP=327 LAYER=  1 ZONE=  2 ACTIVE CELLS=12513 NUMBER OF EQUATIONS=   12513
 
 SOLVING FOR HEAD 

 NO OUTPUT CONTROL FOR STRESS PERIOD    1   TIME STEP  328
 SOLVING FOR ZETA FOR LAYER     1 ZONE     2

    6257 UPPER PART EQS.      6248 LOWER PART EQS.    BAND WIDTH + 1 =  101
 STRESS PERIOD=  1 TIMESTEP=328 LAYER=  1 ZONE=  2 ACTIVE CELLS=12505 NUMBER OF EQUATIONS=   12505
 
 SOLVING FOR HEAD 

 NO OUTPUT CONTROL FOR STRESS PERIOD    1   TIME STEP  329
 SOLVING FOR ZETA FOR LAYER     1 ZONE     2

    6249 UPPER PART EQS.      6255 LOWER PART EQS.    BAND WIDTH + 1 =  103
 STRESS PERIOD=  1 TIMESTEP=329 LAYER=  1 ZONE=  2 ACTIVE CELLS=12504 NUMBER OF EQUATIONS=   12504
 
 SOLVING FOR HEAD 

 NO OUTPUT CONTROL FOR STRESS PERIOD    1   TIME STEP  330
 SOLVING FOR ZETA FOR LAYER     1 ZONE     2

    6261 UPPER PART EQS.      6253 LOWER PART EQS.    BAND WIDTH + 1 =   99
 STRESS PERIOD=  1 TIMESTEP=330 LAYER=  1 ZONE=  2 ACTIVE CELLS=12514 NUMBER OF EQUATIONS=   12514
 
 SOLVING FOR HEAD 

 NO OUTPUT CONTROL FOR STRESS PERIOD    1   TIME STEP  331
 SOLVING FOR ZETA FOR LAYER     1 ZONE     2

    6251 UPPER PART EQS.      6259 LOWER PART EQS.    BAND WIDTH + 1 =  104
 STRESS PERIOD=  1 TIMESTEP=331 LAYER=  1 ZONE=  2 ACTIVE CELLS=12510 NUMBER OF EQUATIONS=   12510
 
 SOLVING FOR HEAD 

 NO OUTPUT CONTROL FOR STRESS PERIOD    1   TIME STEP  332
 SOLVING FOR ZETA FOR LAYER     1 ZONE     2

    6259 UPPER PART EQS.      6250 LOWER PART EQS.    BAND WIDTH + 1 =  100
 STRESS PERIOD=  1 TIMESTEP=332 LAYER=  1 ZONE=  2 ACTIVE CELLS=12509 NUMBER OF EQUATIONS=   12509
 
 SOLVING FOR HEAD 

 NO OUTPUT CONTROL FOR STRESS PERIOD    1   TIME STEP  333
 SOLVING FOR ZETA FOR LAYER     1 ZONE     2

    6255 UPPER PART EQS.      6263 LOWER PART EQS.    BAND WIDTH + 1 =  103
 STRESS PERIOD=  1 TIMESTEP=333 LAYER=  1 ZONE=  2 ACTIVE CELLS=12518 NUMBER OF EQUATIONS=   12518
 
 SOLVING FOR HEAD 

 NO OUTPUT CONTROL FOR STRESS PERIOD    1   TIME STEP  334
 SOLVING FOR ZETA FOR LAYER     1 ZONE     2

    6256 UPPER PART EQS.      6250 LOWER PART EQS.    BAND WIDTH + 1 =  101
 STRESS PERIOD=  1 TIMESTEP=334 LAYER=  1 ZONE=  2 ACTIVE CELLS=12506 NUMBER OF EQUATIONS=   12506
 
 SOLVING FOR HEAD 

 NO OUTPUT CONTROL FOR STRESS PERIOD    1   TIME STEP  335
 SOLVING FOR ZETA FOR LAYER     1 ZONE     2

    6254 UPPER PART EQS.      6260 LOWER PART EQS.    BAND WIDTH + 1 =  102
 STRESS PERIOD=  1 TIMESTEP=335 LAYER=  1 ZONE=  2 ACTIVE CELLS=12514 NUMBER OF EQUATIONS=   12514
 
 SOLVING FOR HEAD 

 NO OUTPUT CONTROL FOR STRESS PERIOD    1   TIME STEP  336
 SOLVING FOR ZETA FOR LAYER     1 ZONE     2

    6261 UPPER PART EQS.      6256 LOWER PART EQS.    BAND WIDTH + 1 =  101
 STRESS PERIOD=  1 TIMESTEP=336 LAYER=  1 ZONE=  2 ACTIVE CELLS=12517 NUMBER OF EQUATIONS=   12517
 
 SOLVING FOR HEAD 

 NO OUTPUT CONTROL FOR STRESS PERIOD    1   TIME STEP  337
 SOLVING FOR ZETA FOR LAYER     1 ZONE     2

    6266 UPPER PART EQS.      6265 LOWER PART EQS.    BAND WIDTH + 1 =  100
 STRESS PERIOD=  1 TIMESTEP=337 LAYER=  1 ZONE=  2 ACTIVE CELLS=12531 NUMBER OF EQUATIONS=   12531
 
 SOLVING FOR HEAD 

 NO OUTPUT CONTROL FOR STRESS PERIOD    1   TIME STEP  338
 SOLVING FOR ZETA FOR LAYER     1 ZONE     2

    6265 UPPER PART EQS.      6257 LOWER PART EQS.    BAND WIDTH + 1 =  100
 STRESS PERIOD=  1 TIMESTEP=338 LAYER=  1 ZONE=  2 ACTIVE CELLS=12522 NUMBER OF EQUATIONS=   12522
 
 SOLVING FOR HEAD 

 NO OUTPUT CONTROL FOR STRESS PERIOD    1   TIME STEP  339
 SOLVING FOR ZETA FOR LAYER     1 ZONE     2

    6263 UPPER PART EQS.      6270 LOWER PART EQS.    BAND WIDTH + 1 =  101
 STRESS PERIOD=  1 TIMESTEP=339 LAYER=  1 ZONE=  2 ACTIVE CELLS=12533 NUMBER OF EQUATIONS=   12533
 
 SOLVING FOR HEAD 

 OUTPUT CONTROL FOR STRESS PERIOD    1   TIME STEP  340
    SAVE HEAD FOR ALL LAYERS
    PRINT BUDGET
 SOLVING FOR ZETA FOR LAYER     1 ZONE     2

    6265 UPPER PART EQS.      6261 LOWER PART EQS.    BAND WIDTH + 1 =  101
 STRESS PERIOD=  1 TIMESTEP=340 LAYER=  1 ZONE=  2 ACTIVE CELLS=12526 NUMBER OF EQUATIONS=   12526
 UBUDSV SAVING "      ZETASRF  1" ON UNIT 55 AT TIME STEP340, STRESS PERIOD    1


                      VOLUMETRIC SWI ZONE BUDGET FOR ENTIRE MODEL
                     AT END OF TIME STEP  340 IN STRESS PERIOD   1
                                      ZONE     1
  -----------------------------------------------------------------------------------

        CUMULATIVE VOLUMES      L**3       RATES FOR THIS TIME STEP      L**3/T
        ------------------                 ------------------------

              IN:                                      IN:
              ---                                      ---
             BOUNDARIES =102137077760.0000            BOUNDARIES =      822695.3750
          CONSTANT HEAD =           0.0000         CONSTANT HEAD =           0.0000
            ZONE CHANGE =  2458251776.0000           ZONE CHANGE =         723.1071
       ZONE CHG TIP/TOE =    17689906.0000      ZONE CHG TIP/TOE =          19.1241
            ZONE MIXING =           0.0000           ZONE MIXING =           0.0000

               TOTAL IN =104613019648.0000              TOTAL IN =      823437.6250

             OUT:                                     OUT:
             ----                                     ----
             BOUNDARIES =           0.0000            BOUNDARIES =           0.0000
          CONSTANT HEAD = 94360190976.0000         CONSTANT HEAD =      825135.6875
            ZONE CHANGE = 27343892480.0000           ZONE CHANGE =       64837.4414
       ZONE CHG TIP/TOE =    14055049.0000      ZONE CHG TIP/TOE =          18.5096
            ZONE MIXING =           0.0000           ZONE MIXING =           0.0000

              TOTAL OUT =121718145024.0000             TOTAL OUT =      889991.6250

               IN - OUT =-17105125376.0000              IN - OUT =      -66554.0000

    PERCENT DISCREPANCY =         -15.12     PERCENT DISCREPANCY =          -7.77



                      VOLUMETRIC SWI ZONE BUDGET FOR ENTIRE MODEL
                     AT END OF TIME STEP  340 IN STRESS PERIOD   1
                                      ZONE     2
  -----------------------------------------------------------------------------------

        CUMULATIVE VOLUMES      L**3       RATES FOR THIS TIME STEP      L**3/T
        ------------------                 ------------------------

              IN:                                      IN:
              ---                                      ---
             BOUNDARIES =    29594638.0000            BOUNDARIES =           0.0000
          CONSTANT HEAD =   565031744.0000         CONSTANT HEAD =        2440.3416
            ZONE CHANGE = 27343892480.0000           ZONE CHANGE =       64837.4414
       ZONE CHG TIP/TOE =  1840463744.0000      ZONE CHG TIP/TOE =         468.0497
            ZONE MIXING =           0.0000           ZONE MIXING =           0.0000

               TOTAL IN = 29778982912.0000              TOTAL IN =       67745.8281

             OUT:                                     OUT:
             ----                                     ----
             BOUNDARIES =           0.0000            BOUNDARIES =           0.0000
          CONSTANT HEAD =  8371315712.0000         CONSTANT HEAD =           0.0000
            ZONE CHANGE =  4284660992.0000           ZONE CHANGE =        1172.6472
       ZONE CHG TIP/TOE =    17689906.0000      ZONE CHG TIP/TOE =          19.1241
            ZONE MIXING =           0.0000           ZONE MIXING =           0.0000

              TOTAL OUT = 12673666048.0000             TOTAL OUT =        1191.7714

               IN - OUT = 17105316864.0000              IN - OUT =       66554.0547

    PERCENT DISCREPANCY =          80.59     PERCENT DISCREPANCY =         193.08


 HEAD WILL BE SAVED ON UNIT   51 AT END OF TIME STEP  340, STRESS PERIOD    1
1
  VOLUMETRIC BUDGET FOR ENTIRE MODEL AT END OF TIME STEP  340, STRESS PERIOD   1
  ------------------------------------------------------------------------------

     CUMULATIVE VOLUMES      L**3       RATES FOR THIS TIME STEP      L**3/T
     ------------------                 ------------------------

           IN:                                      IN:
           ---                                      ---
             STORAGE =           0.0000               STORAGE =           0.0000
       CONSTANT HEAD =  1259017088.0000         CONSTANT HEAD =           0.0000
          SWIADDTOCH =484796530688.0000            SWIADDTOCH =     2895681.2500
            RECHARGE =102166675456.0000              RECHARGE =      822695.3750

            TOTAL IN =588222234624.0000              TOTAL IN =     3718376.5000

          OUT:                                     OUT:
          ----                                     ----
             STORAGE =           0.0000               STORAGE =           0.0000
       CONSTANT HEAD =586685284352.0000         CONSTANT HEAD =     3717255.2500
          SWIADDTOCH =  1536172928.0000            SWIADDTOCH =        1121.2944
            RECHARGE =           0.0000              RECHARGE =           0.0000

           TOTAL OUT =588221448192.0000             TOTAL OUT =     3718376.5000

            IN - OUT =      786432.0000              IN - OUT =           0.0000

 PERCENT DISCREPANCY =           0.00     PERCENT DISCREPANCY =           0.00






         TIME SUMMARY AT END OF TIME STEP  340 IN STRESS PERIOD    1
                    SECONDS     MINUTES      HOURS       DAYS        YEARS
                    -----------------------------------------------------------
   TIME STEP LENGTH 3.15576E+07 5.25960E+05  8766.0      365.25      1.0000    
 STRESS PERIOD TIME 1.07296E+10 1.78826E+08 2.98044E+06 1.24185E+05  340.00    
         TOTAL TIME 1.07296E+10 1.78826E+08 2.98044E+06 1.24185E+05  340.00    
1
 
 SOLVING FOR HEAD 

 NO OUTPUT CONTROL FOR STRESS PERIOD    1   TIME STEP  341
 SOLVING FOR ZETA FOR LAYER     1 ZONE     2

    6268 UPPER PART EQS.      6268 LOWER PART EQS.    BAND WIDTH + 1 =  100
 STRESS PERIOD=  1 TIMESTEP=341 LAYER=  1 ZONE=  2 ACTIVE CELLS=12536 NUMBER OF EQUATIONS=   12536
 
 SOLVING FOR HEAD 

 NO OUTPUT CONTROL FOR STRESS PERIOD    1   TIME STEP  342
 SOLVING FOR ZETA FOR LAYER     1 ZONE     2

    6268 UPPER PART EQS.      6262 LOWER PART EQS.    BAND WIDTH + 1 =   99
 STRESS PERIOD=  1 TIMESTEP=342 LAYER=  1 ZONE=  2 ACTIVE CELLS=12530 NUMBER OF EQUATIONS=   12530
 
 SOLVING FOR HEAD 

 NO OUTPUT CONTROL FOR STRESS PERIOD    1   TIME STEP  343
 SOLVING FOR ZETA FOR LAYER     1 ZONE     2

    6271 UPPER PART EQS.      6273 LOWER PART EQS.    BAND WIDTH + 1 =  101
 STRESS PERIOD=  1 TIMESTEP=343 LAYER=  1 ZONE=  2 ACTIVE CELLS=12544 NUMBER OF EQUATIONS=   12544
 
 SOLVING FOR HEAD 

 NO OUTPUT CONTROL FOR STRESS PERIOD    1   TIME STEP  344
 SOLVING FOR ZETA FOR LAYER     1 ZONE     2

    6271 UPPER PART EQS.      6264 LOWER PART EQS.    BAND WIDTH + 1 =   99
 STRESS PERIOD=  1 TIMESTEP=344 LAYER=  1 ZONE=  2 ACTIVE CELLS=12535 NUMBER OF EQUATIONS=   12535
 
 SOLVING FOR HEAD 

 NO OUTPUT CONTROL FOR STRESS PERIOD    1   TIME STEP  345
 SOLVING FOR ZETA FOR LAYER     1 ZONE     2

    6271 UPPER PART EQS.      6273 LOWER PART EQS.    BAND WIDTH + 1 =  100
 STRESS PERIOD=  1 TIMESTEP=345 LAYER=  1 ZONE=  2 ACTIVE CELLS=12544 NUMBER OF EQUATIONS=   12544
 
 SOLVING FOR HEAD 

 NO OUTPUT CONTROL FOR STRESS PERIOD    1   TIME STEP  346
 SOLVING FOR ZETA FOR LAYER     1 ZONE     2

    6273 UPPER PART EQS.      6264 LOWER PART EQS.    BAND WIDTH + 1 =   99
 STRESS PERIOD=  1 TIMESTEP=346 LAYER=  1 ZONE=  2 ACTIVE CELLS=12537 NUMBER OF EQUATIONS=   12537
 
 SOLVING FOR HEAD 

 NO OUTPUT CONTROL FOR STRESS PERIOD    1   TIME STEP  347
 SOLVING FOR ZETA FOR LAYER     1 ZONE     2

    6276 UPPER PART EQS.      6273 LOWER PART EQS.    BAND WIDTH + 1 =  101
 STRESS PERIOD=  1 TIMESTEP=347 LAYER=  1 ZONE=  2 ACTIVE CELLS=12549 NUMBER OF EQUATIONS=   12549
 
 SOLVING FOR HEAD 

 NO OUTPUT CONTROL FOR STRESS PERIOD    1   TIME STEP  348
 SOLVING FOR ZETA FOR LAYER     1 ZONE     2

    6273 UPPER PART EQS.      6269 LOWER PART EQS.    BAND WIDTH + 1 =   99
 STRESS PERIOD=  1 TIMESTEP=348 LAYER=  1 ZONE=  2 ACTIVE CELLS=12542 NUMBER OF EQUATIONS=   12542
 
 SOLVING FOR HEAD 

 NO OUTPUT CONTROL FOR STRESS PERIOD    1   TIME STEP  349
 SOLVING FOR ZETA FOR LAYER     1 ZONE     2

    6276 UPPER PART EQS.      6275 LOWER PART EQS.    BAND WIDTH + 1 =   99
 STRESS PERIOD=  1 TIMESTEP=349 LAYER=  1 ZONE=  2 ACTIVE CELLS=12551 NUMBER OF EQUATIONS=   12551
 
 SOLVING FOR HEAD 

 NO OUTPUT CONTROL FOR STRESS PERIOD    1   TIME STEP  350
 SOLVING FOR ZETA FOR LAYER     1 ZONE     2

    6278 UPPER PART EQS.      6269 LOWER PART EQS.    BAND WIDTH + 1 =   99
 STRESS PERIOD=  1 TIMESTEP=350 LAYER=  1 ZONE=  2 ACTIVE CELLS=12547 NUMBER OF EQUATIONS=   12547
 
 SOLVING FOR HEAD 

 NO OUTPUT CONTROL FOR STRESS PERIOD    1   TIME STEP  351
 SOLVING FOR ZETA FOR LAYER     1 ZONE     2

    6277 UPPER PART EQS.      6273 LOWER PART EQS.    BAND WIDTH + 1 =   99
 STRESS PERIOD=  1 TIMESTEP=351 LAYER=  1 ZONE=  2 ACTIVE CELLS=12550 NUMBER OF EQUATIONS=   12550
 
 SOLVING FOR HEAD 

 NO OUTPUT CONTROL FOR STRESS PERIOD    1   TIME STEP  352
 SOLVING FOR ZETA FOR LAYER     1 ZONE     2

    6280 UPPER PART EQS.      6273 LOWER PART EQS.    BAND WIDTH + 1 =   99
 STRESS PERIOD=  1 TIMESTEP=352 LAYER=  1 ZONE=  2 ACTIVE CELLS=12553 NUMBER OF EQUATIONS=   12553
 
 SOLVING FOR HEAD 

 NO OUTPUT CONTROL FOR STRESS PERIOD    1   TIME STEP  353
 SOLVING FOR ZETA FOR LAYER     1 ZONE     2

    6278 UPPER PART EQS.      6276 LOWER PART EQS.    BAND WIDTH + 1 =   99
 STRESS PERIOD=  1 TIMESTEP=353 LAYER=  1 ZONE=  2 ACTIVE CELLS=12554 NUMBER OF EQUATIONS=   12554
 
 SOLVING FOR HEAD 

 NO OUTPUT CONTROL FOR STRESS PERIOD    1   TIME STEP  354
 SOLVING FOR ZETA FOR LAYER     1 ZONE     2

    6281 UPPER PART EQS.      6272 LOWER PART EQS.    BAND WIDTH + 1 =   99
 STRESS PERIOD=  1 TIMESTEP=354 LAYER=  1 ZONE=  2 ACTIVE CELLS=12553 NUMBER OF EQUATIONS=   12553
 
 SOLVING FOR HEAD 

 NO OUTPUT CONTROL FOR STRESS PERIOD    1   TIME STEP  355
 SOLVING FOR ZETA FOR LAYER     1 ZONE     2

    6283 UPPER PART EQS.      6277 LOWER PART EQS.    BAND WIDTH + 1 =   99
 STRESS PERIOD=  1 TIMESTEP=355 LAYER=  1 ZONE=  2 ACTIVE CELLS=12560 NUMBER OF EQUATIONS=   12560
 
 SOLVING FOR HEAD 

 NO OUTPUT CONTROL FOR STRESS PERIOD    1   TIME STEP  356
 SOLVING FOR ZETA FOR LAYER     1 ZONE     2

    6282 UPPER PART EQS.      6272 LOWER PART EQS.    BAND WIDTH + 1 =   99
 STRESS PERIOD=  1 TIMESTEP=356 LAYER=  1 ZONE=  2 ACTIVE CELLS=12554 NUMBER OF EQUATIONS=   12554
 
 SOLVING FOR HEAD 

 NO OUTPUT CONTROL FOR STRESS PERIOD    1   TIME STEP  357
 SOLVING FOR ZETA FOR LAYER     1 ZONE     2

    6283 UPPER PART EQS.      6274 LOWER PART EQS.    BAND WIDTH + 1 =   99
 STRESS PERIOD=  1 TIMESTEP=357 LAYER=  1 ZONE=  2 ACTIVE CELLS=12557 NUMBER OF EQUATIONS=   12557
 
 SOLVING FOR HEAD 

 NO OUTPUT CONTROL FOR STRESS PERIOD    1   TIME STEP  358
 SOLVING FOR ZETA FOR LAYER     1 ZONE     2

    6287 UPPER PART EQS.      6274 LOWER PART EQS.    BAND WIDTH + 1 =  100
 STRESS PERIOD=  1 TIMESTEP=358 LAYER=  1 ZONE=  2 ACTIVE CELLS=12561 NUMBER OF EQUATIONS=   12561
 
 SOLVING FOR HEAD 

 NO OUTPUT CONTROL FOR STRESS PERIOD    1   TIME STEP  359
 SOLVING FOR ZETA FOR LAYER     1 ZONE     2

    6284 UPPER PART EQS.      6275 LOWER PART EQS.    BAND WIDTH + 1 =   99
 STRESS PERIOD=  1 TIMESTEP=359 LAYER=  1 ZONE=  2 ACTIVE CELLS=12559 NUMBER OF EQUATIONS=   12559
 
 SOLVING FOR HEAD 

 OUTPUT CONTROL FOR STRESS PERIOD    1   TIME STEP  360
    SAVE HEAD FOR ALL LAYERS
    PRINT BUDGET
 SOLVING FOR ZETA FOR LAYER     1 ZONE     2

    6283 UPPER PART EQS.      6273 LOWER PART EQS.    BAND WIDTH + 1 =  100
 STRESS PERIOD=  1 TIMESTEP=360 LAYER=  1 ZONE=  2 ACTIVE CELLS=12556 NUMBER OF EQUATIONS=   12556
 UBUDSV SAVING "      ZETASRF  1" ON UNIT 55 AT TIME STEP360, STRESS PERIOD    1


                      VOLUMETRIC SWI ZONE BUDGET FOR ENTIRE MODEL
                     AT END OF TIME STEP  360 IN STRESS PERIOD   1
                                      ZONE     1
  -----------------------------------------------------------------------------------

        CUMULATIVE VOLUMES      L**3       RATES FOR THIS TIME STEP      L**3/T
        ------------------                 ------------------------

              IN:                                      IN:
              ---                                      ---
             BOUNDARIES =108146892800.0000            BOUNDARIES =      822695.3750
          CONSTANT HEAD =           0.0000         CONSTANT HEAD =           0.0000
            ZONE CHANGE =  2466434048.0000           ZONE CHANGE =         762.5009
       ZONE CHG TIP/TOE =    17793348.0000      ZONE CHG TIP/TOE =          15.2685
            ZONE MIXING =           0.0000           ZONE MIXING =           0.0000

               TOTAL IN =110631116800.0000              TOTAL IN =      823473.1250

             OUT:                                     OUT:
             ----                                     ----
             BOUNDARIES =           0.0000            BOUNDARIES =           0.0000
          CONSTANT HEAD =100386545664.0000         CONSTANT HEAD =      824803.8125
            ZONE CHANGE = 27787108352.0000           ZONE CHANGE =       57914.0312
       ZONE CHG TIP/TOE =    14163158.0000      ZONE CHG TIP/TOE =          14.6231
            ZONE MIXING =           0.0000           ZONE MIXING =           0.0000

              TOTAL OUT =128187817984.0000             TOTAL OUT =      882732.5000

               IN - OUT =-17556701184.0000              IN - OUT =      -59259.3750

    PERCENT DISCREPANCY =         -14.70     PERCENT DISCREPANCY =          -6.95



                      VOLUMETRIC SWI ZONE BUDGET FOR ENTIRE MODEL
                     AT END OF TIME STEP  360 IN STRESS PERIOD   1
                                      ZONE     2
  -----------------------------------------------------------------------------------

        CUMULATIVE VOLUMES      L**3       RATES FOR THIS TIME STEP      L**3/T
        ------------------                 ------------------------

              IN:                                      IN:
              ---                                      ---
             BOUNDARIES =    29594638.0000            BOUNDARIES =           0.0000
          CONSTANT HEAD =   581968640.0000         CONSTANT HEAD =        2214.7334
            ZONE CHANGE = 27787108352.0000           ZONE CHANGE =       57914.0312
       ZONE CHG TIP/TOE =  1846293760.0000      ZONE CHG TIP/TOE =         712.1213
            ZONE MIXING =           0.0000           ZONE MIXING =           0.0000

               TOTAL IN = 30244966400.0000              TOTAL IN =       60840.8867

             OUT:                                     OUT:
             ----                                     ----
             BOUNDARIES =           0.0000            BOUNDARIES =           0.0000
          CONSTANT HEAD =  8371682304.0000         CONSTANT HEAD =         106.2861
            ZONE CHANGE =  4298565632.0000           ZONE CHANGE =        1459.9991
       ZONE CHG TIP/TOE =    17793348.0000      ZONE CHG TIP/TOE =          15.2685
            ZONE MIXING =           0.0000           ZONE MIXING =           0.0000

              TOTAL OUT = 12688040960.0000             TOTAL OUT =        1581.5538

               IN - OUT = 17556926464.0000              IN - OUT =       59259.3320

    PERCENT DISCREPANCY =          81.79     PERCENT DISCREPANCY =         189.87


 HEAD WILL BE SAVED ON UNIT   51 AT END OF TIME STEP  360, STRESS PERIOD    1
1
  VOLUMETRIC BUDGET FOR ENTIRE MODEL AT END OF TIME STEP  360, STRESS PERIOD   1
  ------------------------------------------------------------------------------

     CUMULATIVE VOLUMES      L**3       RATES FOR THIS TIME STEP      L**3/T
     ------------------                 ------------------------

           IN:                                      IN:
           ---                                      ---
             STORAGE =           0.0000               STORAGE =           0.0000
       CONSTANT HEAD =  1259017088.0000         CONSTANT HEAD =           0.0000
          SWIADDTOCH =505663684608.0000            SWIADDTOCH =     2822894.0000
            RECHARGE =108176490496.0000              RECHARGE =      822695.3750

            TOTAL IN =615099203584.0000              TOTAL IN =     3645589.5000

          OUT:                                     OUT:
          ----                                     ----
             STORAGE =           0.0000               STORAGE =           0.0000
       CONSTANT HEAD =613554651136.0000         CONSTANT HEAD =     3644640.2500
          SWIADDTOCH =  1543681408.0000            SWIADDTOCH =         949.1854
            RECHARGE =           0.0000              RECHARGE =           0.0000

           TOTAL OUT =615098351616.0000             TOTAL OUT =     3645589.5000

            IN - OUT =      851968.0000              IN - OUT =           0.0000

 PERCENT DISCREPANCY =           0.00     PERCENT DISCREPANCY =           0.00






         TIME SUMMARY AT END OF TIME STEP  360 IN STRESS PERIOD    1
                    SECONDS     MINUTES      HOURS       DAYS        YEARS
                    -----------------------------------------------------------
   TIME STEP LENGTH 3.15576E+07 5.25960E+05  8766.0      365.25      1.0000    
 STRESS PERIOD TIME 1.13607E+10 1.89346E+08 3.15576E+06 1.31490E+05  360.00    
         TOTAL TIME 1.13607E+10 1.89346E+08 3.15576E+06 1.31490E+05  360.00    
1
 
 SOLVING FOR HEAD 

 NO OUTPUT CONTROL FOR STRESS PERIOD    1   TIME STEP  361
 SOLVING FOR ZETA FOR LAYER     1 ZONE     2

    6288 UPPER PART EQS.      6275 LOWER PART EQS.    BAND WIDTH + 1 =  100
 STRESS PERIOD=  1 TIMESTEP=361 LAYER=  1 ZONE=  2 ACTIVE CELLS=12563 NUMBER OF EQUATIONS=   12563
 
 SOLVING FOR HEAD 

 NO OUTPUT CONTROL FOR STRESS PERIOD    1   TIME STEP  362
 SOLVING FOR ZETA FOR LAYER     1 ZONE     2

    6280 UPPER PART EQS.      6274 LOWER PART EQS.    BAND WIDTH + 1 =  101
 STRESS PERIOD=  1 TIMESTEP=362 LAYER=  1 ZONE=  2 ACTIVE CELLS=12554 NUMBER OF EQUATIONS=   12554
 
 SOLVING FOR HEAD 

 NO OUTPUT CONTROL FOR STRESS PERIOD    1   TIME STEP  363
 SOLVING FOR ZETA FOR LAYER     1 ZONE     2

    6290 UPPER PART EQS.      6274 LOWER PART EQS.    BAND WIDTH + 1 =  101
 STRESS PERIOD=  1 TIMESTEP=363 LAYER=  1 ZONE=  2 ACTIVE CELLS=12564 NUMBER OF EQUATIONS=   12564
 
 SOLVING FOR HEAD 

 NO OUTPUT CONTROL FOR STRESS PERIOD    1   TIME STEP  364
 SOLVING FOR ZETA FOR LAYER     1 ZONE     2

    6286 UPPER PART EQS.      6278 LOWER PART EQS.    BAND WIDTH + 1 =   99
 STRESS PERIOD=  1 TIMESTEP=364 LAYER=  1 ZONE=  2 ACTIVE CELLS=12564 NUMBER OF EQUATIONS=   12564
 
 SOLVING FOR HEAD 

 NO OUTPUT CONTROL FOR STRESS PERIOD    1   TIME STEP  365
 SOLVING FOR ZETA FOR LAYER     1 ZONE     2

    6285 UPPER PART EQS.      6275 LOWER PART EQS.    BAND WIDTH + 1 =  100
 STRESS PERIOD=  1 TIMESTEP=365 LAYER=  1 ZONE=  2 ACTIVE CELLS=12560 NUMBER OF EQUATIONS=   12560
 
 SOLVING FOR HEAD 

 NO OUTPUT CONTROL FOR STRESS PERIOD    1   TIME STEP  366
 SOLVING FOR ZETA FOR LAYER     1 ZONE     2

    6286 UPPER PART EQS.      6275 LOWER PART EQS.    BAND WIDTH + 1 =  101
 STRESS PERIOD=  1 TIMESTEP=366 LAYER=  1 ZONE=  2 ACTIVE CELLS=12561 NUMBER OF EQUATIONS=   12561
 
 SOLVING FOR HEAD 

 NO OUTPUT CONTROL FOR STRESS PERIOD    1   TIME STEP  367
 SOLVING FOR ZETA FOR LAYER     1 ZONE     2

    6288 UPPER PART EQS.      6276 LOWER PART EQS.    BAND WIDTH + 1 =  101
 STRESS PERIOD=  1 TIMESTEP=367 LAYER=  1 ZONE=  2 ACTIVE CELLS=12564 NUMBER OF EQUATIONS=   12564
 
 SOLVING FOR HEAD 

 NO OUTPUT CONTROL FOR STRESS PERIOD    1   TIME STEP  368
 SOLVING FOR ZETA FOR LAYER     1 ZONE     2

    6283 UPPER PART EQS.      6278 LOWER PART EQS.    BAND WIDTH + 1 =   99
 STRESS PERIOD=  1 TIMESTEP=368 LAYER=  1 ZONE=  2 ACTIVE CELLS=12561 NUMBER OF EQUATIONS=   12561
 
 SOLVING FOR HEAD 

 NO OUTPUT CONTROL FOR STRESS PERIOD    1   TIME STEP  369
 SOLVING FOR ZETA FOR LAYER     1 ZONE     2

    6286 UPPER PART EQS.      6276 LOWER PART EQS.    BAND WIDTH + 1 =  100
 STRESS PERIOD=  1 TIMESTEP=369 LAYER=  1 ZONE=  2 ACTIVE CELLS=12562 NUMBER OF EQUATIONS=   12562
 
 SOLVING FOR HEAD 

 NO OUTPUT CONTROL FOR STRESS PERIOD    1   TIME STEP  370
 SOLVING FOR ZETA FOR LAYER     1 ZONE     2

    6292 UPPER PART EQS.      6281 LOWER PART EQS.    BAND WIDTH + 1 =  102
 STRESS PERIOD=  1 TIMESTEP=370 LAYER=  1 ZONE=  2 ACTIVE CELLS=12573 NUMBER OF EQUATIONS=   12573
 
 SOLVING FOR HEAD 

 NO OUTPUT CONTROL FOR STRESS PERIOD    1   TIME STEP  371
 SOLVING FOR ZETA FOR LAYER     1 ZONE     2

    6292 UPPER PART EQS.      6285 LOWER PART EQS.    BAND WIDTH + 1 =  100
 STRESS PERIOD=  1 TIMESTEP=371 LAYER=  1 ZONE=  2 ACTIVE CELLS=12577 NUMBER OF EQUATIONS=   12577
 
 SOLVING FOR HEAD 

 NO OUTPUT CONTROL FOR STRESS PERIOD    1   TIME STEP  372
 SOLVING FOR ZETA FOR LAYER     1 ZONE     2

    6295 UPPER PART EQS.      6287 LOWER PART EQS.    BAND WIDTH + 1 =   99
 STRESS PERIOD=  1 TIMESTEP=372 LAYER=  1 ZONE=  2 ACTIVE CELLS=12582 NUMBER OF EQUATIONS=   12582
 
 SOLVING FOR HEAD 

 NO OUTPUT CONTROL FOR STRESS PERIOD    1   TIME STEP  373
 SOLVING FOR ZETA FOR LAYER     1 ZONE     2

    6294 UPPER PART EQS.      6285 LOWER PART EQS.    BAND WIDTH + 1 =  101
 STRESS PERIOD=  1 TIMESTEP=373 LAYER=  1 ZONE=  2 ACTIVE CELLS=12579 NUMBER OF EQUATIONS=   12579
 
 SOLVING FOR HEAD 

 NO OUTPUT CONTROL FOR STRESS PERIOD    1   TIME STEP  374
 SOLVING FOR ZETA FOR LAYER     1 ZONE     2

    6295 UPPER PART EQS.      6287 LOWER PART EQS.    BAND WIDTH + 1 =   99
 STRESS PERIOD=  1 TIMESTEP=374 LAYER=  1 ZONE=  2 ACTIVE CELLS=12582 NUMBER OF EQUATIONS=   12582
 
 SOLVING FOR HEAD 

 NO OUTPUT CONTROL FOR STRESS PERIOD    1   TIME STEP  375
 SOLVING FOR ZETA FOR LAYER     1 ZONE     2

    6298 UPPER PART EQS.      6288 LOWER PART EQS.    BAND WIDTH + 1 =  102
 STRESS PERIOD=  1 TIMESTEP=375 LAYER=  1 ZONE=  2 ACTIVE CELLS=12586 NUMBER OF EQUATIONS=   12586
 
 SOLVING FOR HEAD 

 NO OUTPUT CONTROL FOR STRESS PERIOD    1   TIME STEP  376
 SOLVING FOR ZETA FOR LAYER     1 ZONE     2

    6294 UPPER PART EQS.      6291 LOWER PART EQS.    BAND WIDTH + 1 =  100
 STRESS PERIOD=  1 TIMESTEP=376 LAYER=  1 ZONE=  2 ACTIVE CELLS=12585 NUMBER OF EQUATIONS=   12585
 
 SOLVING FOR HEAD 

 NO OUTPUT CONTROL FOR STRESS PERIOD    1   TIME STEP  377
 SOLVING FOR ZETA FOR LAYER     1 ZONE     2

    6296 UPPER PART EQS.      6290 LOWER PART EQS.    BAND WIDTH + 1 =  100
 STRESS PERIOD=  1 TIMESTEP=377 LAYER=  1 ZONE=  2 ACTIVE CELLS=12586 NUMBER OF EQUATIONS=   12586
 
 SOLVING FOR HEAD 

 NO OUTPUT CONTROL FOR STRESS PERIOD    1   TIME STEP  378
 SOLVING FOR ZETA FOR LAYER     1 ZONE     2

    6296 UPPER PART EQS.      6292 LOWER PART EQS.    BAND WIDTH + 1 =  101
 STRESS PERIOD=  1 TIMESTEP=378 LAYER=  1 ZONE=  2 ACTIVE CELLS=12588 NUMBER OF EQUATIONS=   12588
 
 SOLVING FOR HEAD 

 NO OUTPUT CONTROL FOR STRESS PERIOD    1   TIME STEP  379
 SOLVING FOR ZETA FOR LAYER     1 ZONE     2

    6297 UPPER PART EQS.      6290 LOWER PART EQS.    BAND WIDTH + 1 =  101
 STRESS PERIOD=  1 TIMESTEP=379 LAYER=  1 ZONE=  2 ACTIVE CELLS=12587 NUMBER OF EQUATIONS=   12587
 
 SOLVING FOR HEAD 

 OUTPUT CONTROL FOR STRESS PERIOD    1   TIME STEP  380
    SAVE HEAD FOR ALL LAYERS
    PRINT BUDGET
 SOLVING FOR ZETA FOR LAYER     1 ZONE     2

    6297 UPPER PART EQS.      6293 LOWER PART EQS.    BAND WIDTH + 1 =   99
 STRESS PERIOD=  1 TIMESTEP=380 LAYER=  1 ZONE=  2 ACTIVE CELLS=12590 NUMBER OF EQUATIONS=   12590
 UBUDSV SAVING "      ZETASRF  1" ON UNIT 55 AT TIME STEP380, STRESS PERIOD    1


                      VOLUMETRIC SWI ZONE BUDGET FOR ENTIRE MODEL
                     AT END OF TIME STEP  380 IN STRESS PERIOD   1
                                      ZONE     1
  -----------------------------------------------------------------------------------

        CUMULATIVE VOLUMES      L**3       RATES FOR THIS TIME STEP      L**3/T
        ------------------                 ------------------------

              IN:                                      IN:
              ---                                      ---
             BOUNDARIES =114156707840.0000            BOUNDARIES =      822695.3750
          CONSTANT HEAD =           0.0000         CONSTANT HEAD =           0.0000
            ZONE CHANGE =  2472206848.0000           ZONE CHANGE =         532.7757
       ZONE CHG TIP/TOE =    17884660.0000      ZONE CHG TIP/TOE =          10.1838
            ZONE MIXING =           0.0000           ZONE MIXING =           0.0000

               TOTAL IN =116646797312.0000              TOTAL IN =      823238.3125

             OUT:                                     OUT:
             ----                                     ----
             BOUNDARIES =           0.0000            BOUNDARIES =           0.0000
          CONSTANT HEAD =106411786240.0000         CONSTANT HEAD =      824721.3125
            ZONE CHANGE = 28187987968.0000           ZONE CHANGE =       52505.2656
       ZONE CHG TIP/TOE =    14256176.0000      ZONE CHG TIP/TOE =          10.1836
            ZONE MIXING =           0.0000           ZONE MIXING =           0.0000

              TOTAL OUT =134614024192.0000             TOTAL OUT =      877236.7500

               IN - OUT =-17967226880.0000              IN - OUT =      -53998.4375

    PERCENT DISCREPANCY =         -14.30     PERCENT DISCREPANCY =          -6.35



                      VOLUMETRIC SWI ZONE BUDGET FOR ENTIRE MODEL
                     AT END OF TIME STEP  380 IN STRESS PERIOD   1
                                      ZONE     2
  -----------------------------------------------------------------------------------

        CUMULATIVE VOLUMES      L**3       RATES FOR THIS TIME STEP      L**3/T
        ------------------                 ------------------------

              IN:                                      IN:
              ---                                      ---
             BOUNDARIES =    29594638.0000            BOUNDARIES =           0.0000
          CONSTANT HEAD =   597419904.0000         CONSTANT HEAD =        2025.9338
            ZONE CHANGE = 28187987968.0000           ZONE CHANGE =       52505.2656
       ZONE CHG TIP/TOE =  1850919808.0000      ZONE CHG TIP/TOE =         632.8232
            ZONE MIXING =           0.0000           ZONE MIXING =           0.0000

               TOTAL IN = 30665920512.0000              TOTAL IN =       55164.0234

             OUT:                                     OUT:
             ----                                     ----
             BOUNDARIES =           0.0000            BOUNDARIES =           0.0000
          CONSTANT HEAD =  8371682304.0000         CONSTANT HEAD =           0.0000
            ZONE CHANGE =  4308870144.0000           ZONE CHANGE =        1155.4153
       ZONE CHG TIP/TOE =    17884660.0000      ZONE CHG TIP/TOE =          10.1838
            ZONE MIXING =           0.0000           ZONE MIXING =           0.0000

              TOTAL OUT = 12698436608.0000             TOTAL OUT =        1165.5990

               IN - OUT = 17967484928.0000              IN - OUT =       53998.4258

    PERCENT DISCREPANCY =          82.87     PERCENT DISCREPANCY =         191.72


 HEAD WILL BE SAVED ON UNIT   51 AT END OF TIME STEP  380, STRESS PERIOD    1
1
  VOLUMETRIC BUDGET FOR ENTIRE MODEL AT END OF TIME STEP  380, STRESS PERIOD   1
  ------------------------------------------------------------------------------

     CUMULATIVE VOLUMES      L**3       RATES FOR THIS TIME STEP      L**3/T
     ------------------                 ------------------------

           IN:                                      IN:
           ---                                      ---
             STORAGE =           0.0000               STORAGE =           0.0000
       CONSTANT HEAD =  1259017088.0000         CONSTANT HEAD =           0.0000
          SWIADDTOCH =526028472320.0000            SWIADDTOCH =     2757588.5000
            RECHARGE =114186305536.0000              RECHARGE =      822695.3750

            TOTAL IN =641473773568.0000              TOTAL IN =     3580284.0000

          OUT:                                     OUT:
          ----                                     ----
             STORAGE =           0.0000               STORAGE =           0.0000
       CONSTANT HEAD =639922733056.0000         CONSTANT HEAD =     3579458.2500
          SWIADDTOCH =  1550094464.0000            SWIADDTOCH =         825.5638
            RECHARGE =           0.0000              RECHARGE =           0.0000

           TOTAL OUT =641472856064.0000             TOTAL OUT =     3580283.7500

            IN - OUT =      917504.0000              IN - OUT =           0.2500

 PERCENT DISCREPANCY =           0.00     PERCENT DISCREPANCY =           0.00






         TIME SUMMARY AT END OF TIME STEP  380 IN STRESS PERIOD    1
                    SECONDS     MINUTES      HOURS       DAYS        YEARS
                    -----------------------------------------------------------
   TIME STEP LENGTH 3.15576E+07 5.25960E+05  8766.0      365.25      1.0000    
 STRESS PERIOD TIME 1.19919E+10 1.99865E+08 3.33108E+06 1.38795E+05  380.00    
         TOTAL TIME 1.19919E+10 1.99865E+08 3.33108E+06 1.38795E+05  380.00    
1
 
 SOLVING FOR HEAD 

 NO OUTPUT CONTROL FOR STRESS PERIOD    1   TIME STEP  381
 SOLVING FOR ZETA FOR LAYER     1 ZONE     2

    6298 UPPER PART EQS.      6291 LOWER PART EQS.    BAND WIDTH + 1 =  101
 STRESS PERIOD=  1 TIMESTEP=381 LAYER=  1 ZONE=  2 ACTIVE CELLS=12589 NUMBER OF EQUATIONS=   12589
 
 SOLVING FOR HEAD 

 NO OUTPUT CONTROL FOR STRESS PERIOD    1   TIME STEP  382
 SOLVING FOR ZETA FOR LAYER     1 ZONE     2

    6299 UPPER PART EQS.      6291 LOWER PART EQS.    BAND WIDTH + 1 =  100
 STRESS PERIOD=  1 TIMESTEP=382 LAYER=  1 ZONE=  2 ACTIVE CELLS=12590 NUMBER OF EQUATIONS=   12590
 
 SOLVING FOR HEAD 

 NO OUTPUT CONTROL FOR STRESS PERIOD    1   TIME STEP  383
 SOLVING FOR ZETA FOR LAYER     1 ZONE     2

    6299 UPPER PART EQS.      6291 LOWER PART EQS.    BAND WIDTH + 1 =  102
 STRESS PERIOD=  1 TIMESTEP=383 LAYER=  1 ZONE=  2 ACTIVE CELLS=12590 NUMBER OF EQUATIONS=   12590
 
 SOLVING FOR HEAD 

 NO OUTPUT CONTROL FOR STRESS PERIOD    1   TIME STEP  384
 SOLVING FOR ZETA FOR LAYER     1 ZONE     2

    6299 UPPER PART EQS.      6292 LOWER PART EQS.    BAND WIDTH + 1 =   99
 STRESS PERIOD=  1 TIMESTEP=384 LAYER=  1 ZONE=  2 ACTIVE CELLS=12591 NUMBER OF EQUATIONS=   12591
 
 SOLVING FOR HEAD 

 NO OUTPUT CONTROL FOR STRESS PERIOD    1   TIME STEP  385
 SOLVING FOR ZETA FOR LAYER     1 ZONE     2

    6300 UPPER PART EQS.      6292 LOWER PART EQS.    BAND WIDTH + 1 =  101
 STRESS PERIOD=  1 TIMESTEP=385 LAYER=  1 ZONE=  2 ACTIVE CELLS=12592 NUMBER OF EQUATIONS=   12592
 
 SOLVING FOR HEAD 

 NO OUTPUT CONTROL FOR STRESS PERIOD    1   TIME STEP  386
 SOLVING FOR ZETA FOR LAYER     1 ZONE     2

    6303 UPPER PART EQS.      6293 LOWER PART EQS.    BAND WIDTH + 1 =  100
 STRESS PERIOD=  1 TIMESTEP=386 LAYER=  1 ZONE=  2 ACTIVE CELLS=12596 NUMBER OF EQUATIONS=   12596
 
 SOLVING FOR HEAD 

 NO OUTPUT CONTROL FOR STRESS PERIOD    1   TIME STEP  387
 SOLVING FOR ZETA FOR LAYER     1 ZONE     2

    6304 UPPER PART EQS.      6294 LOWER PART EQS.    BAND WIDTH + 1 =  102
 STRESS PERIOD=  1 TIMESTEP=387 LAYER=  1 ZONE=  2 ACTIVE CELLS=12598 NUMBER OF EQUATIONS=   12598
 
 SOLVING FOR HEAD 

 NO OUTPUT CONTROL FOR STRESS PERIOD    1   TIME STEP  388
 SOLVING FOR ZETA FOR LAYER     1 ZONE     2

    6303 UPPER PART EQS.      6297 LOWER PART EQS.    BAND WIDTH + 1 =   99
 STRESS PERIOD=  1 TIMESTEP=388 LAYER=  1 ZONE=  2 ACTIVE CELLS=12600 NUMBER OF EQUATIONS=   12600
 
 SOLVING FOR HEAD 

 NO OUTPUT CONTROL FOR STRESS PERIOD    1   TIME STEP  389
 SOLVING FOR ZETA FOR LAYER     1 ZONE     2

    6306 UPPER PART EQS.      6297 LOWER PART EQS.    BAND WIDTH + 1 =  100
 STRESS PERIOD=  1 TIMESTEP=389 LAYER=  1 ZONE=  2 ACTIVE CELLS=12603 NUMBER OF EQUATIONS=   12603
 
 SOLVING FOR HEAD 

 NO OUTPUT CONTROL FOR STRESS PERIOD    1   TIME STEP  390
 SOLVING FOR ZETA FOR LAYER     1 ZONE     2

    6307 UPPER PART EQS.      6298 LOWER PART EQS.    BAND WIDTH + 1 =   99
 STRESS PERIOD=  1 TIMESTEP=390 LAYER=  1 ZONE=  2 ACTIVE CELLS=12605 NUMBER OF EQUATIONS=   12605
 
 SOLVING FOR HEAD 

 NO OUTPUT CONTROL FOR STRESS PERIOD    1   TIME STEP  391
 SOLVING FOR ZETA FOR LAYER     1 ZONE     2

    6308 UPPER PART EQS.      6298 LOWER PART EQS.    BAND WIDTH + 1 =  101
 STRESS PERIOD=  1 TIMESTEP=391 LAYER=  1 ZONE=  2 ACTIVE CELLS=12606 NUMBER OF EQUATIONS=   12606
 
 SOLVING FOR HEAD 

 NO OUTPUT CONTROL FOR STRESS PERIOD    1   TIME STEP  392
 SOLVING FOR ZETA FOR LAYER     1 ZONE     2

    6307 UPPER PART EQS.      6299 LOWER PART EQS.    BAND WIDTH + 1 =   99
 STRESS PERIOD=  1 TIMESTEP=392 LAYER=  1 ZONE=  2 ACTIVE CELLS=12606 NUMBER OF EQUATIONS=   12606
 
 SOLVING FOR HEAD 

 NO OUTPUT CONTROL FOR STRESS PERIOD    1   TIME STEP  393
 SOLVING FOR ZETA FOR LAYER     1 ZONE     2

    6309 UPPER PART EQS.      6299 LOWER PART EQS.    BAND WIDTH + 1 =  101
 STRESS PERIOD=  1 TIMESTEP=393 LAYER=  1 ZONE=  2 ACTIVE CELLS=12608 NUMBER OF EQUATIONS=   12608
 
 SOLVING FOR HEAD 

 NO OUTPUT CONTROL FOR STRESS PERIOD    1   TIME STEP  394
 SOLVING FOR ZETA FOR LAYER     1 ZONE     2

    6308 UPPER PART EQS.      6299 LOWER PART EQS.    BAND WIDTH + 1 =   99
 STRESS PERIOD=  1 TIMESTEP=394 LAYER=  1 ZONE=  2 ACTIVE CELLS=12607 NUMBER OF EQUATIONS=   12607
 
 SOLVING FOR HEAD 

 NO OUTPUT CONTROL FOR STRESS PERIOD    1   TIME STEP  395
 SOLVING FOR ZETA FOR LAYER     1 ZONE     2

    6310 UPPER PART EQS.      6300 LOWER PART EQS.    BAND WIDTH + 1 =  101
 STRESS PERIOD=  1 TIMESTEP=395 LAYER=  1 ZONE=  2 ACTIVE CELLS=12610 NUMBER OF EQUATIONS=   12610
 
 SOLVING FOR HEAD 

 NO OUTPUT CONTROL FOR STRESS PERIOD    1   TIME STEP  396
 SOLVING FOR ZETA FOR LAYER     1 ZONE     2

    6307 UPPER PART EQS.      6298 LOWER PART EQS.    BAND WIDTH + 1 =  100
 STRESS PERIOD=  1 TIMESTEP=396 LAYER=  1 ZONE=  2 ACTIVE CELLS=12605 NUMBER OF EQUATIONS=   12605
 
 SOLVING FOR HEAD 

 NO OUTPUT CONTROL FOR STRESS PERIOD    1   TIME STEP  397
 SOLVING FOR ZETA FOR LAYER     1 ZONE     2

    6313 UPPER PART EQS.      6302 LOWER PART EQS.    BAND WIDTH + 1 =  100
 STRESS PERIOD=  1 TIMESTEP=397 LAYER=  1 ZONE=  2 ACTIVE CELLS=12615 NUMBER OF EQUATIONS=   12615
 
 SOLVING FOR HEAD 

 NO OUTPUT CONTROL FOR STRESS PERIOD    1   TIME STEP  398
 SOLVING FOR ZETA FOR LAYER     1 ZONE     2

    6307 UPPER PART EQS.      6301 LOWER PART EQS.    BAND WIDTH + 1 =   99
 STRESS PERIOD=  1 TIMESTEP=398 LAYER=  1 ZONE=  2 ACTIVE CELLS=12608 NUMBER OF EQUATIONS=   12608
 
 SOLVING FOR HEAD 

 NO OUTPUT CONTROL FOR STRESS PERIOD    1   TIME STEP  399
 SOLVING FOR ZETA FOR LAYER     1 ZONE     2

    6312 UPPER PART EQS.      6303 LOWER PART EQS.    BAND WIDTH + 1 =  101
 STRESS PERIOD=  1 TIMESTEP=399 LAYER=  1 ZONE=  2 ACTIVE CELLS=12615 NUMBER OF EQUATIONS=   12615
 
 SOLVING FOR HEAD 

 OUTPUT CONTROL FOR STRESS PERIOD    1   TIME STEP  400
    SAVE HEAD FOR ALL LAYERS
    PRINT BUDGET
 SOLVING FOR ZETA FOR LAYER     1 ZONE     2

    6309 UPPER PART EQS.      6301 LOWER PART EQS.    BAND WIDTH + 1 =  100
 STRESS PERIOD=  1 TIMESTEP=400 LAYER=  1 ZONE=  2 ACTIVE CELLS=12610 NUMBER OF EQUATIONS=   12610
 UBUDSV SAVING "      ZETASRF  1" ON UNIT 55 AT TIME STEP400, STRESS PERIOD    1


                      VOLUMETRIC SWI ZONE BUDGET FOR ENTIRE MODEL
                     AT END OF TIME STEP  400 IN STRESS PERIOD   1
                                      ZONE     1
  -----------------------------------------------------------------------------------

        CUMULATIVE VOLUMES      L**3       RATES FOR THIS TIME STEP      L**3/T
        ------------------                 ------------------------

              IN:                                      IN:
              ---                                      ---
             BOUNDARIES =120166522880.0000            BOUNDARIES =      822695.3750
          CONSTANT HEAD =           0.0000         CONSTANT HEAD =           0.0000
            ZONE CHANGE =  2476358656.0000           ZONE CHANGE =         327.2691
       ZONE CHG TIP/TOE =    17944932.0000      ZONE CHG TIP/TOE =          10.7832
            ZONE MIXING =           0.0000           ZONE MIXING =           0.0000

               TOTAL IN =122660831232.0000              TOTAL IN =      823033.4375

             OUT:                                     OUT:
             ----                                     ----
             BOUNDARIES =           0.0000            BOUNDARIES =           0.0000
          CONSTANT HEAD =112435904512.0000         CONSTANT HEAD =      824607.6875
            ZONE CHANGE = 28560373760.0000           ZONE CHANGE =       49176.4922
       ZONE CHG TIP/TOE =    14321857.0000      ZONE CHG TIP/TOE =          11.4280
            ZONE MIXING =           0.0000           ZONE MIXING =           0.0000

              TOTAL OUT =141010599936.0000             TOTAL OUT =      873795.6250

               IN - OUT =-18349768704.0000              IN - OUT =      -50762.1875

    PERCENT DISCREPANCY =         -13.92     PERCENT DISCREPANCY =          -5.98



                      VOLUMETRIC SWI ZONE BUDGET FOR ENTIRE MODEL
                     AT END OF TIME STEP  400 IN STRESS PERIOD   1
                                      ZONE     2
  -----------------------------------------------------------------------------------

        CUMULATIVE VOLUMES      L**3       RATES FOR THIS TIME STEP      L**3/T
        ------------------                 ------------------------

              IN:                                      IN:
              ---                                      ---
             BOUNDARIES =    29594638.0000            BOUNDARIES =           0.0000
          CONSTANT HEAD =   611750720.0000         CONSTANT HEAD =        1912.3029
            ZONE CHANGE = 28560373760.0000           ZONE CHANGE =       49176.4922
       ZONE CHG TIP/TOE =  1854573696.0000      ZONE CHG TIP/TOE =         473.2379
            ZONE MIXING =           0.0000           ZONE MIXING =           0.0000

               TOTAL IN = 31056293888.0000              TOTAL IN =       51562.0352

             OUT:                                     OUT:
             ----                                     ----
             BOUNDARIES =           0.0000            BOUNDARIES =           0.0000
          CONSTANT HEAD =  8371682304.0000         CONSTANT HEAD =           0.0000
            ZONE CHANGE =  4316608512.0000           ZONE CHANGE =         789.0790
       ZONE CHG TIP/TOE =    17944932.0000      ZONE CHG TIP/TOE =          10.7832
            ZONE MIXING =           0.0000           ZONE MIXING =           0.0000

              TOTAL OUT = 12706235392.0000             TOTAL OUT =         799.8623

               IN - OUT = 18350059520.0000              IN - OUT =       50762.1719

    PERCENT DISCREPANCY =          83.86     PERCENT DISCREPANCY =         193.89


 HEAD WILL BE SAVED ON UNIT   51 AT END OF TIME STEP  400, STRESS PERIOD    1
1
  VOLUMETRIC BUDGET FOR ENTIRE MODEL AT END OF TIME STEP  400, STRESS PERIOD   1
  ------------------------------------------------------------------------------

     CUMULATIVE VOLUMES      L**3       RATES FOR THIS TIME STEP      L**3/T
     ------------------                 ------------------------

           IN:                                      IN:
           ---                                      ---
             STORAGE =           0.0000               STORAGE =           0.0000
       CONSTANT HEAD =  1259017088.0000         CONSTANT HEAD =           0.0000
          SWIADDTOCH =545938440192.0000            SWIADDTOCH =     2697033.7500
            RECHARGE =120196120576.0000              RECHARGE =      822695.3750

            TOTAL IN =667393589248.0000              TOTAL IN =     3519729.0000

          OUT:                                     OUT:
          ----                                     ----
             STORAGE =           0.0000               STORAGE =           0.0000
       CONSTANT HEAD =665836257280.0000         CONSTANT HEAD =     3518876.5000
          SWIADDTOCH =  1556487424.0000            SWIADDTOCH =         852.6808
            RECHARGE =           0.0000              RECHARGE =           0.0000

           TOTAL OUT =667392737280.0000             TOTAL OUT =     3519729.2500

            IN - OUT =      851968.0000              IN - OUT =          -0.2500

 PERCENT DISCREPANCY =           0.00     PERCENT DISCREPANCY =          -0.00






         TIME SUMMARY AT END OF TIME STEP  400 IN STRESS PERIOD    1
                    SECONDS     MINUTES      HOURS       DAYS        YEARS
                    -----------------------------------------------------------
   TIME STEP LENGTH 3.15576E+07 5.25960E+05  8766.0      365.25      1.0000    
 STRESS PERIOD TIME 1.26230E+10 2.10384E+08 3.50640E+06 1.46100E+05  400.00    
         TOTAL TIME 1.26230E+10 2.10384E+08 3.50640E+06 1.46100E+05  400.00    
1

 HEAD AND DRAWDOWN OBSERVATIONS
 OBSERVATION       OBSERVED           SIMULATED
   NAME              VALUE              VALUE             DIFFERENCE
 --------------------------------------------------------------------
 Obs_0           5.5000000000        8.3480539322       -2.8480539322    
 Obs_1          0.20000000298       0.59180587530      -0.39180588722    
 Obs_2          0.40000000596       0.68788784742      -0.28788784146    
 Obs_3          0.30000001192       0.65517783165      -0.35517781973    
 Obs_4          0.60000002384       0.68017518520      -8.01751613617E-02
 Obs_5           2.2999999523        1.0589303970        1.2410695553    
 Obs_6           2.5999999046       0.96071243286        1.6392874718    
 Obs_7           3.5000000000        2.7656254768       0.73437452316    
 Obs_8           1.2000000477       0.98219698668       0.21780306101    
 Obs_9           3.5999999046        4.7577223778       -1.1577224731    
 Obs_10          1.5000000000        1.1634188890       0.33658111095    
 Obs_11          1.8999999762        2.3967673779      -0.49676740170    
 Obs_12          1.2999999523        5.1618819237       -3.8618819714    
 Obs_13         0.89999997616        2.3904335499       -1.4904335737    
 Obs_14          44.700000763        8.9656686783        35.734333038    
 Obs_15          2.5999999046        2.3601262569       0.23987364769    
 Obs_16          1.7000000477        2.3298232555      -0.62982320786    
 Obs_17          3.0000000000        9.2723245621       -6.2723245621    
 Obs_18          1.7999999523        2.8167824745       -1.0167825222    
 Obs_19          5.9000000954        17.752662659       -11.852663040    
 Obs_20          19.200000763        10.565219879        8.6347808838    
 Obs_21          8.0000000000        20.739927292       -12.739927292    
 Obs_22          8.1999998093        12.821756363       -4.6217565536    
 Obs_23          5.7500000000        11.194234848       -5.4442348480    
 Obs_24          34.200000763        20.806720734        13.393280029    
 Obs_25          3.2000000477        10.300773621       -7.1007738113    
 Obs_26          16.500000000        22.873508453       -6.3735084534    
 Obs_27          25.399999619        15.050633430        10.349366188    
 Obs_28          1.7999999523        9.8466959000       -8.0466957092    
 Obs_29          8.8000001907        9.9889440536       -1.1889438629    
 Obs_30         0.85000002384        7.5239286423       -6.6739287376    
 Obs_31         0.89999997616        7.1137290001       -6.2137289047    
 Obs_32         0.60000002384       0.10000000149       0.50000000000    
 Obs_33          20.299999237        15.791641235        4.5083580017    
 Obs_34          1.7999999523        7.8973660469       -6.0973663330    
 Obs_35          1.9333000183        7.1234092712       -5.1901092529    
 Obs_36         0.30000001192        4.4629497528       -4.1629495621    
 Obs_37         0.50000000000       0.52640426159      -2.64042615891E-02
 Obs_38          1.0000000000        3.9391806126       -2.9391806126    
 Obs_39          62.500000000        24.434003830        38.065994263    
 Obs_40          15.800000191        8.6024789810        7.1975212097    
 Obs_41          1.2000000477        14.022252083       -12.822252274    
 Obs_42          7.3000001907        15.781660080       -8.4816598892    
 Obs_43          7.3000001907        17.581190109       -10.281189919    
 Obs_44          9.8000001907        19.076833725       -9.2768335342    
 Obs_45          16.466699600        20.775043488       -4.3083438873    
 Obs_46          1.2000000477        9.0818548203       -7.8818550110    
 Obs_47          3.0000000000        8.6809806824       -5.6809806824    
 Obs_48          6.6500000954        11.594404221       -4.9444041252    
 Obs_49          2.7000000477        10.097075462       -7.3970756531    
 Obs_50          6.0999999046        3.9876797199        2.1123201847    
 Obs_51         0.10000000149       0.10000000149        0.0000000000    
 Obs_52          8.1000003815        9.0577526093      -0.95775222778    
 Obs_53          8.1999998093        9.0022192001      -0.80221939087    
 Obs_54          4.3000001907        11.535820961       -7.2358207703    
 Obs_55          5.5666999817        10.752457619       -5.1857576370    
 Obs_56          5.5000000000        12.372804642       -6.8728046417    
 Obs_57          7.3000001907        6.9139242172       0.38607597351    
 Obs_58          6.0000000000        4.8504881859        1.1495118141    
 Obs_59          2.7000000477       0.94186741114        1.7581326962    
 Obs_60          5.3000001907       0.95694756508        4.3430528641    
 Obs_61          3.0999999046        2.1732740402       0.92672586441    
 Obs_62          3.0000000000        1.2784448862        1.7215551138    
 Obs_63          5.6999998093       0.78921484947        4.9107847214    

 HEAD/DRAWDOWN SUM OF SQUARED DIFFERENCE:    4.72069E+03

 Run end date and time (yyyy/mm/dd hh:mm:ss): 2019/08/01 12:38:05
 Elapsed run time: 14.321 Seconds

