                                  MODFLOW-2005     
      U.S. GEOLOGICAL SURVEY MODULAR FINITE-DIFFERENCE GROUND-WATER FLOW MODEL
                            VERSION 1.12.00 2/3/2017

 LIST FILE: modelface.list
                         UNIT    2

 OPENING modelface.dis
 FILE TYPE:DIS   UNIT   11   STATUS:OLD    
 FORMAT:FORMATTED              ACCESS:SEQUENTIAL          

 OPENING modelface.bas
 FILE TYPE:BAS6   UNIT   13   STATUS:OLD    
 FORMAT:FORMATTED              ACCESS:SEQUENTIAL          

 OPENING modelface.lpf
 FILE TYPE:LPF   UNIT   15   STATUS:OLD    
 FORMAT:FORMATTED              ACCESS:SEQUENTIAL          

 OPENING modelface.ghb
 FILE TYPE:GHB   UNIT   23   STATUS:OLD    
 FORMAT:FORMATTED              ACCESS:SEQUENTIAL          

 OPENING modelface.rch
 FILE TYPE:RCH   UNIT   19   STATUS:OLD    
 FORMAT:FORMATTED              ACCESS:SEQUENTIAL          

 OPENING modelface.oc
 FILE TYPE:OC   UNIT   14   STATUS:OLD    
 FORMAT:FORMATTED              ACCESS:SEQUENTIAL          

 OPENING modelface.pcg
 FILE TYPE:PCG   UNIT   27   STATUS:OLD    
 FORMAT:FORMATTED              ACCESS:SEQUENTIAL          

 OPENING modelface.hob
 FILE TYPE:HOB   UNIT   39   STATUS:OLD    
 FORMAT:FORMATTED              ACCESS:SEQUENTIAL          

 OPENING modelface.swi2
 FILE TYPE:SWI2   UNIT   29   STATUS:OLD    
 FORMAT:FORMATTED              ACCESS:SEQUENTIAL          

 OPENING modelface.hds
 FILE TYPE:DATA(BINARY)   UNIT   51   STATUS:REPLACE
 FORMAT:BINARY                 ACCESS:SEQUENTIAL          

 OPENING modelface.hob.out
 FILE TYPE:DATA   UNIT    7   STATUS:UNKNOWN
 FORMAT:FORMATTED              ACCESS:SEQUENTIAL          

 OPENING modelface.zta
 FILE TYPE:DATA(BINARY)   UNIT   55   STATUS:REPLACE
 FORMAT:BINARY                 ACCESS:SEQUENTIAL          

 BAS -- BASIC PACKAGE, VERSION 7, 5/2/2005 INPUT READ FROM UNIT   13
 
 MODFLOW was compiled using mixed precision
 Precision of REAL variables:           6
 Precision of DOUBLE PRECISION variables:          15

 DISCRETIZATION INPUT DATA READ FROM UNIT   11
 # DIS package for  MODFLOW-2005, generated by Flopy.
    1 LAYERS       100 ROWS       200 COLUMNS
    3 STRESS PERIOD(S) IN SIMULATION
 MODEL TIME UNIT IS DAYS
 MODEL LENGTH UNIT IS METERS
  Confining bed flag for each layer:
   0

                     DELR =   169.000    

                     DELC =   165.000    

 TOP ELEVATION OF LAYER 1 =   100.000    

   MODEL LAYER BOTTOM EL. =  -1000.00     FOR LAYER   1


 STRESS PERIOD     LENGTH       TIME STEPS     MULTIPLIER FOR DELT    SS FLAG
 ----------------------------------------------------------------------------
        1         73050.00       1000                    1.000         SS
        2         4383.000        120                    1.000         SS
        3         6574.500        180                    1.000         SS

 STEADY-STATE SIMULATION



 
 # BAS6 package for  MODFLOW-2005, generated by Flopy.                           
 THE FREE FORMAT OPTION HAS BEEN SELECTED



                     BOUNDARY ARRAY FOR LAYER   1
 READING ON UNIT   13 WITH FORMAT: (200I10)            

 AQUIFER HEAD WILL BE SET TO  -999.99     AT ALL NO-FLOW NODES (IBOUND=0).



                       INITIAL HEAD FOR LAYER   1
 READING ON UNIT   13 WITH FORMAT: (200E15.6)          
 # OC package for  MODFLOW-2005, generated by Flopy.

 OUTPUT CONTROL IS SPECIFIED ONLY AT TIME STEPS FOR WHICH OUTPUT IS DESIRED
 COMPACT CELL-BY-CELL BUDGET FILES WILL BE WRITTEN
 AUXILIARY DATA WILL BE SAVED IN CELL-BY-CELL BUDGET FILES
 HEAD PRINT FORMAT CODE IS   0    DRAWDOWN PRINT FORMAT CODE IS   0
 HEADS WILL BE SAVED ON UNIT   51    DRAWDOWNS WILL BE SAVED ON UNIT    0

 LPF -- LAYER-PROPERTY FLOW PACKAGE, VERSION 7, 5/2/2005
         INPUT READ FROM UNIT   15
 # LPF package for  MODFLOW-2005, generated by Flopy.
 HEAD AT CELLS THAT CONVERT TO DRY= -1.00000E+30
 No named parameters

   LAYER FLAGS:
 LAYER       LAYTYP        LAYAVG         CHANI        LAYVKA        LAYWET
 ---------------------------------------------------------------------------
    1             0             0     1.000E+00             0             0

   INTERPRETATION OF LAYER FLAGS:
                        INTERBLOCK     HORIZONTAL    DATA IN
         LAYER TYPE   TRANSMISSIVITY   ANISOTROPY   ARRAY VKA   WETTABILITY
 LAYER      (LAYTYP)      (LAYAVG)       (CHANI)      (LAYVKA)      (LAYWET)
 ---------------------------------------------------------------------------
    1      CONFINED      HARMONIC     1.000E+00    VERTICAL K  NON-WETTABLE

 WETTING CAPABILITY IS NOT ACTIVE IN ANY LAYER



              HYD. COND. ALONG ROWS FOR LAYER   1
 READING ON UNIT   15 WITH FORMAT: (200E15.6)          

      VERTICAL HYD. COND. =   300.000     FOR LAYER   1

 GHB -- GENERAL-HEAD BOUNDARY PACKAGE, VERSION 7, 5/2/2005
         INPUT READ FROM UNIT   23
 # GHB package for  MODFLOW-2005, generated by Flopy.
 No named parameters
 MAXIMUM OF   7876 ACTIVE GHB CELLS AT ONE TIME


     0 GHB parameters

 RCH -- RECHARGE PACKAGE, VERSION 7, 5/2/2005 INPUT READ FROM UNIT   19
 # RCH package for  MODFLOW-2005, generated by Flopy.
 No named parameters
 OPTION 3 -- RECHARGE TO HIGHEST ACTIVE NODE IN EACH VERTICAL COLUMN


     0 Recharge parameters

 PCG -- CONJUGATE-GRADIENT SOLUTION PACKAGE, VERSION 7, 5/2/2005
 # PCG package for  MODFLOW-2005, generated by Flopy.
 MAXIMUM OF    100 CALLS OF SOLUTION ROUTINE
 MAXIMUM OF     50 INTERNAL ITERATIONS PER CALL TO SOLUTION ROUTINE
 MATRIX PRECONDITIONING TYPE :    1



                                    SOLUTION BY THE CONJUGATE-GRADIENT METHOD
                                   -------------------------------------------
                    MAXIMUM NUMBER OF CALLS TO PCG ROUTINE =      100
                        MAXIMUM ITERATIONS PER CALL TO PCG =       50
                               MATRIX PRECONDITIONING TYPE =        1
        RELAXATION FACTOR (ONLY USED WITH PRECOND. TYPE 1) =    0.10000E+01
 PARAMETER OF POLYNOMIAL PRECOND. = 2 (2) OR IS CALCULATED :        0
                         HEAD CHANGE CRITERION FOR CLOSURE =    0.10000E-05
                     RESIDUAL CHANGE CRITERION FOR CLOSURE =    0.30000E-02
            PCG HEAD AND RESIDUAL CHANGE PRINTOUT INTERVAL =      999
     PRINTING FROM SOLVER IS LIMITED(1) OR SUPPRESSED (>1) =        3
                            STEADY-STATE DAMPING PARAMETER =    0.10000E+01
                               TRANSIENT DAMPING PARAMETER =    0.10000E+01


 SWI2 -- SWI PACKAGE, VERSION 2.0.0, 07/22/2013
 --------------------------------------------------
 SWI2 INPUT READ FROM UNIT 29


 # SWI2 package for  MODFLOW-2005, generated by Flopy.
 # Dataset 1


 SWI2 DATASET 1
 ----------------------------------------------------
 NUMBER OF SURFACES (NSRF):                         1
 TOTAL NUMBER OF ZONES:                             2
 DENSITY DISTRIBUTION OPTION (ISTRAT):              1
   VARIABLE DENSITY FLOW -- ISTRAT = 0
   STRATIFIED FLOW       -- ISTRAT = 1
 NUMBER OF SWI OBSERVATIONS (NOBS):                 0
 ZETA OUTPUT FILE UNIT NUMBER (ISWIZT):            55
 BUDGET OUTPUT FILE UNIT NUMBER (ISWICB):           0
 OBSERVATION OUTPUT FILE UNIT NUMBER (ISWIOBS):     0
 ----------------------------------------------------
 # Dataset 2a


 SWI2 DATASET 2A
 ----------------------------------------------------
 SOLVER (NSOLVER):                                  1
   SOLVER =                      DIRECT SOLVER (DE4)
 SOLVER PRINTOUT INTERVAL (IPRSOL):               999
 SOLVER OUTPUT FLAG (MUTSOL):                       3
   0 = PRINTING EVERY ITERATION
   1 = LIMITED (TOTAL NUMBER OF ITERATIONS)
   2 = NO PRINTING
   3 = ONLY IF CONVERGENCE FAILS
 ----------------------------------------------------
 # Dataset 3a


 SWI2 DATASET 3A
 ----------------------------------------------------
 MAXIMUM TOE SURFACE SLOPE (TOESLOPE):      0.500E-02
 MAXIMUM TIP SURFACE SLOPE (TIPSLOPE):      0.500E-02
 EXCESS SURFACE SLOPE FRACTION (ALPHA):     0.100    
 MINIMUM ZONE THICKNESS FRACTION (BETA):    0.100    
 ----------------------------------------------------



                             NUZONE
 READING ON UNIT   29 WITH FORMAT: (2E15.6)            



                   ZETA SURFACE  1  FOR LAYER   1
 READING ON UNIT   29 WITH FORMAT: (200E15.6)          

                      SSZ =  0.200000     FOR LAYER   1



                            IZONENR FOR LAYER   1
 READING ON UNIT   29 WITH FORMAT: (200I10)            

 OBS2BAS7 -- HEAD OBSERVATIONS, VERSION 2.0, 2/28/2006
 INPUT READ FROM UNIT  39
 # HOB package for  MODFLOW-2005, generated by Flopy.

 NUMBER OF HEADS....................................:   58
   NUMBER OF MULTILAYER HEADS.......................:    0
   MAXIMUM NUMBER OF LAYERS FOR MULTILAYER HEADS....:    0
 HEAD OBSERVATIONS WILL BE SAVED ON UNIT............:    7
 SIMULATED EQUIVALENT HEAD AT DRY CELLS WILL BE:   -999.000    

 OBSERVED HEAD DATA -- TIME OFFSETS ARE MULTIPLIED BY:   1.0000    

                    REFER.
       OBSERVATION  STRESS    TIME
  OBS#    NAME      PERIOD   OFFSET    OBSERVATION
     1 FLI182           1    0.000       5.500    
 Observation within a steady-state time step has been moved to the end of the time step.
     2 214601           1    0.000      0.2000    
 Observation within a steady-state time step has been moved to the end of the time step.
     3 214602           1    0.000      0.4000    
 Observation within a steady-state time step has been moved to the end of the time step.
     4 Taputimuwind     1    0.000      0.3000    
 Observation within a steady-state time step has been moved to the end of the time step.
     5 214604           1    0.000      0.6000    
 Observation within a steady-state time step has been moved to the end of the time step.
     6 Malaeloa70       1    0.000       2.600    
 Observation within a steady-state time step has been moved to the end of the time step.
     7 MOA15            1    0.000       2.300    
 Observation within a steady-state time step has been moved to the end of the time step.
     8 MOA169           1    0.000       3.500    
 Observation within a steady-state time step has been moved to the end of the time step.
     9 Puapua47         1    0.000       1.200    
 Observation within a steady-state time step has been moved to the end of the time step.
    10 TGH1             1    0.000       3.600    
 Observation within a steady-state time step has been moved to the end of the time step.
    11 Malaeloa92       1    0.000       1.200    
 Observation within a steady-state time step has been moved to the end of the time step.
    12 Malaeloa91       1    0.000       1.800    
 Observation within a steady-state time step has been moved to the end of the time step.
    13 TGH3             1    0.000       1.900    
 Observation within a steady-state time step has been moved to the end of the time step.
    14 PAV177           1    0.000       1.300    
 Observation within a steady-state time step has been moved to the end of the time step.
    15 Iliili79         1    0.000      0.9000    
 Observation within a steady-state time step has been moved to the end of the time step.
    16 Iliili62         1    0.000       2.600    
 Observation within a steady-state time step has been moved to the end of the time step.
    17 MES6             1    0.000       44.70    
 Observation within a steady-state time step has been moved to the end of the time step.
    18 ILI76            1    0.000       1.600    
 Observation within a steady-state time step has been moved to the end of the time step.
    19 Iliili74         1    0.000       1.800    
 Observation within a steady-state time step has been moved to the end of the time step.
    20 194407           1    0.000       3.000    
 Observation within a steady-state time step has been moved to the end of the time step.
    21 Iliili84         1    0.000       1.800    
 Observation within a steady-state time step has been moved to the end of the time step.
    22 MMI3             1    0.000       5.900    
 Observation within a steady-state time step has been moved to the end of the time step.
    23 Malaeimi109      1    0.000       8.200    
 Observation within a steady-state time step has been moved to the end of the time step.
    24 Malaeimi89       1    0.000       6.000    
 Observation within a steady-state time step has been moved to the end of the time step.
    25 Malaeimi67       1    0.000       3.200    
 Observation within a steady-state time step has been moved to the end of the time step.
    26 MMI4             1    0.000       16.50    
 Observation within a steady-state time step has been moved to the end of the time step.
    27 194409           1    0.000       25.40    
 Observation within a steady-state time step has been moved to the end of the time step.
    28 214301           1    0.000      0.6000    
 Observation within a steady-state time step has been moved to the end of the time step.
    29 MMI1             1    0.000       20.30    
 Observation within a steady-state time step has been moved to the end of the time step.
    30 TAF72            1    0.000       1.800    
 Observation within a steady-state time step has been moved to the end of the time step.
    31 204301           1    0.000      0.3000    
 Observation within a steady-state time step has been moved to the end of the time step.
    32 204302           1    0.000      0.5000    
 Observation within a steady-state time step has been moved to the end of the time step.
    33 194302           1    0.000       1.000    
 Observation within a steady-state time step has been moved to the end of the time step.
    34 VAI183           1    0.000       62.50    
 Observation within a steady-state time step has been moved to the end of the time step.
    35 NUULI24B         1    0.000       15.80    
 Observation within a steady-state time step has been moved to the end of the time step.
    36 Pago100(wate     1    0.000       1.200    
 Observation within a steady-state time step has been moved to the end of the time step.
    37 PAGO163          1    0.000       7.300    
 Observation within a steady-state time step has been moved to the end of the time step.
    38 PAGOTANK24       1    0.000       1.200    
 Observation within a steady-state time step has been moved to the end of the time step.
    39 Pagoplaza12      1    0.000       3.000    
 Observation within a steady-state time step has been moved to the end of the time step.
    40 FALU179          1    0.000       2.700    
 Observation within a steady-state time step has been moved to the end of the time step.
    41 174101           1    0.000       6.100    
 Observation within a steady-state time step has been moved to the end of the time step.
    42 UTULEI3          1    0.000      0.1000    
 Observation within a steady-state time step has been moved to the end of the time step.
    43 Sailele130       1    0.000       2.700    
 Observation within a steady-state time step has been moved to the end of the time step.
    44 163502           1    0.000       5.300    
 Observation within a steady-state time step has been moved to the end of the time step.
    45 163301           1    0.000       5.700    
 Observation within a steady-state time step has been moved to the end of the time step.
    46 MALAEIMI88       1    0.000       12.35    
 Observation within a steady-state time step has been moved to the end of the time step.
    47 MMI2             1    0.000       21.10    
 Observation within a steady-state time step has been moved to the end of the time step.
    48 Malaeimi69       1    0.000       5.300    
 Observation within a steady-state time step has been moved to the end of the time step.
    49 194311           1    0.000      0.8750    
 Observation within a steady-state time step has been moved to the end of the time step.
    50 194304           1    0.000       1.933    
 Observation within a steady-state time step has been moved to the end of the time step.
    51 164204           1    0.000       9.175    
 Observation within a steady-state time step has been moved to the end of the time step.
    52 Pago107          1    0.000       16.47    
 Observation within a steady-state time step has been moved to the end of the time step.
    53 Fagatogo102      1    0.000       6.650    
 Observation within a steady-state time step has been moved to the end of the time step.
    54 VATI170          1    0.000       8.150    
 Observation within a steady-state time step has been moved to the end of the time step.
    55 163903           1    0.000       5.567    
 Observation within a steady-state time step has been moved to the end of the time step.
    56 AUA98            1    0.000       4.900    
 Observation within a steady-state time step has been moved to the end of the time step.
    57 LAU96            1    0.000       6.650    
 Observation within a steady-state time step has been moved to the end of the time step.
    58 153401           1    0.000       3.050    
 Observation within a steady-state time step has been moved to the end of the time step.

                                                     HEAD CHANGE
                                                      REFERENCE
        OBSERVATION                   ROW     COL    OBSERVATION
  OBS#     NAME       LAY  ROW  COL  OFFSET  OFFSET   (IF > 0)
     1  FLI182          1   42   12   0.000   0.000        0
     2  214601          1   59   26   0.000   0.000        0
     3  214602          1   61   27   0.000   0.000        0
     4  Taputimuwind    1   65   27   0.000   0.000        0
     5  214604          1   64   27   0.000   0.000        0
     6  Malaeloa70      1   56   28   0.000   0.000        0
     7  MOA15           1   53   28   0.000   0.000        0
     8  MOA169          1   53   29   0.000   0.000        0
     9  Puapua47        1   58   29   0.000   0.000        0
    10  TGH1            1   53   30   0.000   0.000        0
    11  Malaeloa92      1   58   30   0.000   0.000        0
    12  Malaeloa91      1   57   31   0.000   0.000        0
    13  TGH3            1   60   35   0.000   0.000        0
    14  PAV177          1   54   36   0.000   0.000        0
    15  Iliili79        1   59   36   0.000   0.000        0
    16  Iliili62        1   60   36   0.000   0.000        0
    17  MES6            1   48   37   0.000   0.000        0
    18  ILI76           1   59   37   0.000   0.000        0
    19  Iliili74        1   60   37   0.000   0.000        0
    20  194407          1   47   38   0.000   0.000        0
    21  Iliili84        1   59   38   0.000   0.000        0
    22  MMI3            1   43   39   0.000   0.000        0
    23  Malaeimi109     1   44   39   0.000   0.000        0
    24  Malaeimi89      1   45   40   0.000   0.000        0
    25  Malaeimi67      1   46   40   0.000   0.000        0
    26  MMI4            1   40   41   0.000   0.000        0
    27  194409          1   43   41   0.000   0.000        0
    28  214301          1   63   41   0.000   0.000        0
    29  MMI1            1   42   42   0.000   0.000        0
    30  TAF72           1   47   42   0.000   0.000        0
    31  204301          1   51   43   0.000   0.000        0
    32  204302          1   57   44   0.000   0.000        0
    33  194302          1   47   45   0.000   0.000        0
    34  VAI183          1   27   49   0.000   0.000        0
    35  NUULI24B        1   38   49   0.000   0.000        0
    36  Pago100(wate    1   22   50   0.000   0.000        0
    37  PAGO163         1   23   50   0.000   0.000        0
    38  PAGOTANK24      1   21   50   0.000   0.000        0
    39  Pagoplaza12     1   22   51   0.000   0.000        0
    40  FALU179         1   32   56   0.000   0.000        0
    41  174101          1   31   57   0.000   0.000        0
    42  UTULEI3         1   26   57   0.000   0.000        0
    43  Sailele130      1   15   85   0.000   0.000        0
    44  163502          1   23   87   0.000   0.000        0
    45  163301          1   18   94   0.000   0.000        0
    46  MALAEIMI88      1   45   39   0.000   0.000        0
    47  MMI2            1   41   40   0.000   0.000        0
    48  Malaeimi69      1   45   41   0.000   0.000        0
    49  194311          1   49   41   0.000   0.000        0
    50  194304          1   48   42   0.000   0.000        0
    51  164204          1   24   50   0.000   0.000        0
    52  Pago107         1   25   50   0.000   0.000        0
    53  Fagatogo102     1   26   54   0.000   0.000        0
    54  VATI170         1   13   62   0.000   0.000        0
    55  163903          1   21   64   0.000   0.000        0
    56  AUA98           1   20   64   0.000   0.000        0
    57  LAU96           1   28   67   0.000   0.000        0
    58  153401          1   12   94   0.000   0.000        0
1
                            STRESS PERIOD NO.    1, LENGTH =   73050.00    
                            -----------------------------------------------

                              NUMBER OF TIME STEPS =  1000

                               MULTIPLIER FOR DELT =     1.000

                            INITIAL TIME STEP SIZE =   73.05000    

 BOUND. NO. LAYER   ROW   COL     STAGE      CONDUCTANCE         
 ----------------------------------------------------------------
      1      1      2     90       1.000           30.00    
      2      1      2     91       1.000           30.00    
      3      1      2     92       1.000           30.00    
      4      1      2     93       1.000           30.00    
      5      1      2     94       1.000           30.00    
      6      1      2     95       1.000           30.00    
      7      1      2     96       1.000           30.00    
      8      1      2     97       1.000           30.00    
      9      1      2     98       1.000           30.00    
     10      1      2     99       1.000           30.00    
     11      1      2    100       1.000           30.00    
     12      1      2    101       1.000           30.00    
     13      1      2    102       1.000           30.00    
     14      1      2    103       1.000           30.00    
     15      1      2    104       1.000           30.00    
     16      1      2    105       1.000           30.00    
     17      1      2    106       1.000           30.00    
     18      1      2    107       1.000           30.00    
     19      1      2    108       1.000           30.00    
     20      1      2    109       1.000           30.00    
     21      1      2    110       1.000           30.00    
     22      1      2    111       1.000           30.00    
     23      1      2    112       1.000           30.00    
     24      1      2    113       1.000           30.00    
     25      1      2    114       1.000           30.00    
     26      1      2    115       1.000           30.00    
     27      1      2    116       1.000           30.00    
     28      1      2    117       1.000           30.00    
     29      1      2    118       1.000           30.00    
     30      1      2    119       1.000           30.00    
     31      1      2    120       1.000           30.00    
     32      1      2    121       1.000           30.00    
     33      1      2    122       1.000           30.00    
     34      1      2    123       1.000           30.00    
     35      1      2    124       1.000           30.00    
     36      1      2    125       1.000           30.00    
     37      1      2    126       1.000           30.00    
     38      1      2    127       1.000           30.00    
     39      1      2    128       1.000           30.00    
     40      1      2    129       1.000           30.00    
     41      1      2    130       1.000           30.00    
     42      1      2    131       1.000           30.00    
     43      1      2    132       1.000           30.00    
     44      1      2    133       1.000           30.00    
     45      1      2    134       1.000           30.00    
     46      1      2    135       1.000           30.00    
     47      1      2    136       1.000           30.00    
     48      1      2    137       1.000           30.00    
     49      1      2    138       1.000           30.00    
     50      1      2    139       1.000           30.00    
     51      1      2    140       1.000           30.00    
     52      1      2    141       1.000           30.00    
     53      1      2    142       1.000           30.00    
     54      1      2    143       1.000           30.00    
     55      1      2    144       1.000           30.00    
     56      1      2    145       1.000           30.00    
     57      1      2    146       1.000           30.00    
     58      1      2    147       1.000           30.00    
     59      1      2    148       1.000           30.00    
     60      1      2    149       1.000           30.00    
     61      1      2    150       1.000           30.00    
     62      1      2    151       1.000           30.00    
     63      1      2    152       1.000           30.00    
     64      1      2    153       1.000           30.00    
     65      1      2    154       1.000           30.00    
     66      1      2    155       1.000           30.00    
     67      1      2    156       1.000           30.00    
     68      1      2    157       1.000           30.00    
     69      1      2    158       1.000           30.00    
     70      1      2    159       1.000           30.00    
     71      1      2    160       1.000           30.00    
     72      1      2    161       1.000           30.00    
     73      1      2    162       1.000           30.00    
     74      1      2    163       1.000           30.00    
     75      1      2    164       1.000           30.00    
     76      1      2    165       1.000           30.00    
     77      1      2    166       1.000           30.00    
     78      1      2    167       1.000           30.00    
     79      1      2    168       1.000           30.00    
     80      1      2    169       1.000           30.00    
     81      1      2    170       1.000           30.00    
     82      1      2    171       1.000           30.00    
     83      1      2    172       1.000           30.00    
     84      1      2    173       1.000           30.00    
     85      1      2    174       1.000           30.00    
     86      1      2    175       1.000           30.00    
     87      1      2    176       1.000           30.00    
     88      1      2    177       1.000           30.00    
     89      1      2    178       1.000           30.00    
     90      1      2    179       1.000           30.00    
     91      1      2    180       1.000           30.00    
     92      1      2    181       1.000           30.00    
     93      1      2    182       1.000           30.00    
     94      1      2    183       1.000           30.00    
     95      1      2    184       1.000           30.00    
     96      1      2    185       1.000           30.00    
     97      1      2    186       1.000           30.00    
     98      1      2    187       1.000           30.00    
     99      1      2    188       1.000           30.00    
    100      1      2    189       1.000           30.00    
    101      1      2    190       1.000           30.00    
    102      1      2    191       1.000           30.00    
    103      1      2    192       1.000           30.00    
    104      1      2    193       1.000           30.00    
    105      1      2    194       1.000           30.00    
    106      1      2    195       1.000           30.00    
    107      1      2    196       1.000           30.00    
    108      1      2    197       1.000           30.00    
    109      1      2    198       1.000           30.00    
    110      1      2    199       1.000           30.00    
    111      1      3     89       1.000           30.00    
    112      1      3     90       1.000           30.00    
    113      1      3     91       1.000           30.00    
    114      1      3     92       1.000           30.00    
    115      1      3     93       1.000           30.00    
    116      1      3     94       1.000           30.00    
    117      1      3     95       1.000           30.00    
    118      1      3     96       1.000           30.00    
    119      1      3     97       1.000           30.00    
    120      1      3     98       1.000           30.00    
    121      1      3     99       1.000           30.00    
    122      1      3    100       1.000           30.00    
    123      1      3    101       1.000           30.00    
    124      1      3    102       1.000           30.00    
    125      1      3    103       1.000           30.00    
    126      1      3    104       1.000           30.00    
    127      1      3    105       1.000           30.00    
    128      1      3    106       1.000           30.00    
    129      1      3    107       1.000           30.00    
    130      1      3    108       1.000           30.00    
    131      1      3    109       1.000           30.00    
    132      1      3    110       1.000           30.00    
    133      1      3    111       1.000           30.00    
    134      1      3    112       1.000           30.00    
    135      1      3    113       1.000           30.00    
    136      1      3    114       1.000           30.00    
    137      1      3    115       1.000           30.00    
    138      1      3    116       1.000           30.00    
    139      1      3    117       1.000           30.00    
    140      1      3    118       1.000           30.00    
    141      1      3    119       1.000           30.00    
    142      1      3    120       1.000           30.00    
    143      1      3    121       1.000           30.00    
    144      1      3    122       1.000           30.00    
    145      1      3    123       1.000           30.00    
    146      1      3    124       1.000           30.00    
    147      1      3    125       1.000           30.00    
    148      1      3    126       1.000           30.00    
    149      1      3    127       1.000           30.00    
    150      1      3    128       1.000           30.00    
    151      1      3    129       1.000           30.00    
    152      1      3    130       1.000           30.00    
    153      1      3    131       1.000           30.00    
    154      1      3    132       1.000           30.00    
    155      1      3    133       1.000           30.00    
    156      1      3    134       1.000           30.00    
    157      1      3    135       1.000           30.00    
    158      1      3    136       1.000           30.00    
    159      1      3    137       1.000           30.00    
    160      1      3    138       1.000           30.00    
    161      1      3    139       1.000           30.00    
    162      1      3    140       1.000           30.00    
    163      1      3    141       1.000           30.00    
    164      1      3    142       1.000           30.00    
    165      1      3    143       1.000           30.00    
    166      1      3    144       1.000           30.00    
    167      1      3    145       1.000           30.00    
    168      1      3    146       1.000           30.00    
    169      1      3    147       1.000           30.00    
    170      1      3    148       1.000           30.00    
    171      1      3    149       1.000           30.00    
    172      1      3    150       1.000           30.00    
    173      1      3    151       1.000           30.00    
    174      1      3    152       1.000           30.00    
    175      1      3    153       1.000           30.00    
    176      1      3    154       1.000           30.00    
    177      1      3    155       1.000           30.00    
    178      1      3    156       1.000           30.00    
    179      1      3    157       1.000           30.00    
    180      1      3    158       1.000           30.00    
    181      1      3    159       1.000           30.00    
    182      1      3    160       1.000           30.00    
    183      1      3    161       1.000           30.00    
    184      1      3    162       1.000           30.00    
    185      1      3    163       1.000           30.00    
    186      1      3    164       1.000           30.00    
    187      1      3    165       1.000           30.00    
    188      1      3    166       1.000           30.00    
    189      1      3    167       1.000           30.00    
    190      1      3    168       1.000           30.00    
    191      1      3    169       1.000           30.00    
    192      1      3    170       1.000           30.00    
    193      1      3    171       1.000           30.00    
    194      1      3    172       1.000           30.00    
    195      1      3    173       1.000           30.00    
    196      1      3    174       1.000           30.00    
    197      1      3    175       1.000           30.00    
    198      1      3    176       1.000           30.00    
    199      1      3    177       1.000           30.00    
    200      1      3    178       1.000           30.00    
    201      1      3    179       1.000           30.00    
    202      1      3    180       1.000           30.00    
    203      1      3    181       1.000           30.00    
    204      1      3    182       1.000           30.00    
    205      1      3    183       1.000           30.00    
    206      1      3    184       1.000           30.00    
    207      1      3    185       1.000           30.00    
    208      1      3    186       1.000           30.00    
    209      1      3    187       1.000           30.00    
    210      1      3    188       1.000           30.00    
    211      1      3    189       1.000           30.00    
    212      1      3    190       1.000           30.00    
    213      1      3    191       1.000           30.00    
    214      1      3    192       1.000           30.00    
    215      1      3    193       1.000           30.00    
    216      1      3    194       1.000           30.00    
    217      1      3    195       1.000           30.00    
    218      1      3    196       1.000           30.00    
    219      1      3    197       1.000           30.00    
    220      1      3    198       1.000           30.00    
    221      1      3    199       1.000           30.00    
    222      1      4     89       1.000           30.00    
    223      1      4     90       1.000           30.00    
    224      1      4     91       1.000           30.00    
    225      1      4     92       1.000           30.00    
    226      1      4     93       1.000           30.00    
    227      1      4     94       1.000           30.00    
    228      1      4     95       1.000           30.00    
    229      1      4     96       1.000           30.00    
    230      1      4     97       1.000           30.00    
    231      1      4     98       1.000           30.00    
    232      1      4     99       1.000           30.00    
    233      1      4    100       1.000           30.00    
    234      1      4    101       1.000           30.00    
    235      1      4    102       1.000           30.00    
    236      1      4    103       1.000           30.00    
    237      1      4    104       1.000           30.00    
    238      1      4    105       1.000           30.00    
    239      1      4    106       1.000           30.00    
    240      1      4    107       1.000           30.00    
    241      1      4    108       1.000           30.00    
    242      1      4    109       1.000           30.00    
    243      1      4    110       1.000           30.00    
    244      1      4    111       1.000           30.00    
    245      1      4    112       1.000           30.00    
    246      1      4    113       1.000           30.00    
    247      1      4    114       1.000           30.00    
    248      1      4    115       1.000           30.00    
    249      1      4    116       1.000           30.00    
    250      1      4    117       1.000           30.00    
    251      1      4    118       1.000           30.00    
    252      1      4    119       1.000           30.00    
    253      1      4    120       1.000           30.00    
    254      1      4    121       1.000           30.00    
    255      1      4    122       1.000           30.00    
    256      1      4    123       1.000           30.00    
    257      1      4    124       1.000           30.00    
    258      1      4    125       1.000           30.00    
    259      1      4    126       1.000           30.00    
    260      1      4    127       1.000           30.00    
    261      1      4    128       1.000           30.00    
    262      1      4    129       1.000           30.00    
    263      1      4    130       1.000           30.00    
    264      1      4    131       1.000           30.00    
    265      1      4    132       1.000           30.00    
    266      1      4    133       1.000           30.00    
    267      1      4    134       1.000           30.00    
    268      1      4    135       1.000           30.00    
    269      1      4    136       1.000           30.00    
    270      1      4    137       1.000           30.00    
    271      1      4    138       1.000           30.00    
    272      1      4    139       1.000           30.00    
    273      1      4    140       1.000           30.00    
    274      1      4    141       1.000           30.00    
    275      1      4    142       1.000           30.00    
    276      1      4    143       1.000           30.00    
    277      1      4    144       1.000           30.00    
    278      1      4    145       1.000           30.00    
    279      1      4    146       1.000           30.00    
    280      1      4    147       1.000           30.00    
    281      1      4    148       1.000           30.00    
    282      1      4    149       1.000           30.00    
    283      1      4    150       1.000           30.00    
    284      1      4    151       1.000           30.00    
    285      1      4    152       1.000           30.00    
    286      1      4    153       1.000           30.00    
    287      1      4    154       1.000           30.00    
    288      1      4    155       1.000           30.00    
    289      1      4    156       1.000           30.00    
    290      1      4    157       1.000           30.00    
    291      1      4    158       1.000           30.00    
    292      1      4    159       1.000           30.00    
    293      1      4    160       1.000           30.00    
    294      1      4    161       1.000           30.00    
    295      1      4    162       1.000           30.00    
    296      1      4    163       1.000           30.00    
    297      1      4    164       1.000           30.00    
    298      1      4    165       1.000           30.00    
    299      1      4    166       1.000           30.00    
    300      1      4    167       1.000           30.00    
    301      1      4    168       1.000           30.00    
    302      1      4    169       1.000           30.00    
    303      1      4    170       1.000           30.00    
    304      1      4    171       1.000           30.00    
    305      1      4    172       1.000           30.00    
    306      1      4    173       1.000           30.00    
    307      1      4    174       1.000           30.00    
    308      1      4    175       1.000           30.00    
    309      1      4    176       1.000           30.00    
    310      1      4    177       1.000           30.00    
    311      1      4    178       1.000           30.00    
    312      1      4    179       1.000           30.00    
    313      1      4    180       1.000           30.00    
    314      1      4    181       1.000           30.00    
    315      1      4    182       1.000           30.00    
    316      1      4    183       1.000           30.00    
    317      1      4    184       1.000           30.00    
    318      1      4    185       1.000           30.00    
    319      1      4    186       1.000           30.00    
    320      1      4    187       1.000           30.00    
    321      1      4    188       1.000           30.00    
    322      1      4    189       1.000           30.00    
    323      1      4    190       1.000           30.00    
    324      1      4    191       1.000           30.00    
    325      1      4    192       1.000           30.00    
    326      1      4    193       1.000           30.00    
    327      1      4    194       1.000           30.00    
    328      1      4    195       1.000           30.00    
    329      1      4    196       1.000           30.00    
    330      1      4    197       1.000           30.00    
    331      1      4    198       1.000           30.00    
    332      1      4    199       1.000           30.00    
    333      1      5     88       1.000           30.00    
    334      1      5     89       1.000           30.00    
    335      1      5     90       1.000           30.00    
    336      1      5     91       1.000           30.00    
    337      1      5     92       1.000           30.00    
    338      1      5     93       1.000           30.00    
    339      1      5     94       1.000           30.00    
    340      1      5     95       1.000           30.00    
    341      1      5     96       1.000           30.00    
    342      1      5     97       1.000           30.00    
    343      1      5     98       1.000           30.00    
    344      1      5     99       1.000           30.00    
    345      1      5    100       1.000           30.00    
    346      1      5    101       1.000           30.00    
    347      1      5    102       1.000           30.00    
    348      1      5    103       1.000           30.00    
    349      1      5    104       1.000           30.00    
    350      1      5    105       1.000           30.00    
    351      1      5    106       1.000           30.00    
    352      1      5    107       1.000           30.00    
    353      1      5    108       1.000           30.00    
    354      1      5    109       1.000           30.00    
    355      1      5    110       1.000           30.00    
    356      1      5    111       1.000           30.00    
    357      1      5    112       1.000           30.00    
    358      1      5    113       1.000           30.00    
    359      1      5    114       1.000           30.00    
    360      1      5    115       1.000           30.00    
    361      1      5    116       1.000           30.00    
    362      1      5    117       1.000           30.00    
    363      1      5    118       1.000           30.00    
    364      1      5    119       1.000           30.00    
    365      1      5    120       1.000           30.00    
    366      1      5    121       1.000           30.00    
    367      1      5    122       1.000           30.00    
    368      1      5    123       1.000           30.00    
    369      1      5    124       1.000           30.00    
    370      1      5    125       1.000           30.00    
    371      1      5    126       1.000           30.00    
    372      1      5    127       1.000           30.00    
    373      1      5    128       1.000           30.00    
    374      1      5    129       1.000           30.00    
    375      1      5    130       1.000           30.00    
    376      1      5    131       1.000           30.00    
    377      1      5    132       1.000           30.00    
    378      1      5    133       1.000           30.00    
    379      1      5    134       1.000           30.00    
    380      1      5    135       1.000           30.00    
    381      1      5    136       1.000           30.00    
    382      1      5    137       1.000           30.00    
    383      1      5    138       1.000           30.00    
    384      1      5    139       1.000           30.00    
    385      1      5    140       1.000           30.00    
    386      1      5    141       1.000           30.00    
    387      1      5    142       1.000           30.00    
    388      1      5    143       1.000           30.00    
    389      1      5    144       1.000           30.00    
    390      1      5    145       1.000           30.00    
    391      1      5    146       1.000           30.00    
    392      1      5    147       1.000           30.00    
    393      1      5    148       1.000           30.00    
    394      1      5    149       1.000           30.00    
    395      1      5    150       1.000           30.00    
    396      1      5    151       1.000           30.00    
    397      1      5    152       1.000           30.00    
    398      1      5    153       1.000           30.00    
    399      1      5    154       1.000           30.00    
    400      1      5    155       1.000           30.00    
    401      1      5    156       1.000           30.00    
    402      1      5    157       1.000           30.00    
    403      1      5    158       1.000           30.00    
    404      1      5    159       1.000           30.00    
    405      1      5    160       1.000           30.00    
    406      1      5    161       1.000           30.00    
    407      1      5    162       1.000           30.00    
    408      1      5    163       1.000           30.00    
    409      1      5    164       1.000           30.00    
    410      1      5    165       1.000           30.00    
    411      1      5    166       1.000           30.00    
    412      1      5    167       1.000           30.00    
    413      1      5    168       1.000           30.00    
    414      1      5    169       1.000           30.00    
    415      1      5    170       1.000           30.00    
    416      1      5    171       1.000           30.00    
    417      1      5    172       1.000           30.00    
    418      1      5    173       1.000           30.00    
    419      1      5    174       1.000           30.00    
    420      1      5    175       1.000           30.00    
    421      1      5    176       1.000           30.00    
    422      1      5    177       1.000           30.00    
    423      1      5    178       1.000           30.00    
    424      1      5    179       1.000           30.00    
    425      1      5    180       1.000           30.00    
    426      1      5    181       1.000           30.00    
    427      1      5    182       1.000           30.00    
    428      1      5    183       1.000           30.00    
    429      1      5    184       1.000           30.00    
    430      1      5    185       1.000           30.00    
    431      1      5    186       1.000           30.00    
    432      1      5    187       1.000           30.00    
    433      1      5    188       1.000           30.00    
    434      1      5    189       1.000           30.00    
    435      1      5    190       1.000           30.00    
    436      1      5    191       1.000           30.00    
    437      1      5    192       1.000           30.00    
    438      1      5    193       1.000           30.00    
    439      1      5    194       1.000           30.00    
    440      1      5    195       1.000           30.00    
    441      1      5    196       1.000           30.00    
    442      1      5    197       1.000           30.00    
    443      1      5    198       1.000           30.00    
    444      1      5    199       1.000           30.00    
    445      1      6     87       1.000           30.00    
    446      1      6     88       1.000           30.00    
    447      1      6     89       1.000           30.00    
    448      1      6     90       1.000           30.00    
    449      1      6     91       1.000           30.00    
    450      1      6     92       1.000           30.00    
    451      1      6     93       1.000           30.00    
    452      1      6     94       1.000           30.00    
    453      1      6     95       1.000           30.00    
    454      1      6     96       1.000           30.00    
    455      1      6     97       1.000           30.00    
    456      1      6     98       1.000           30.00    
    457      1      6     99       1.000           30.00    
    458      1      6    100       1.000           30.00    
    459      1      6    101       1.000           30.00    
    460      1      6    102       1.000           30.00    
    461      1      6    103       1.000           30.00    
    462      1      6    104       1.000           30.00    
    463      1      6    105       1.000           30.00    
    464      1      6    106       1.000           30.00    
    465      1      6    107       1.000           30.00    
    466      1      6    108       1.000           30.00    
    467      1      6    109       1.000           30.00    
    468      1      6    110       1.000           30.00    
    469      1      6    111       1.000           30.00    
    470      1      6    112       1.000           30.00    
    471      1      6    113       1.000           30.00    
    472      1      6    114       1.000           30.00    
    473      1      6    115       1.000           30.00    
    474      1      6    116       1.000           30.00    
    475      1      6    117       1.000           30.00    
    476      1      6    118       1.000           30.00    
    477      1      6    119       1.000           30.00    
    478      1      6    121       1.000           30.00    
    479      1      6    122       1.000           30.00    
    480      1      6    123       1.000           30.00    
    481      1      6    124       1.000           30.00    
    482      1      6    125       1.000           30.00    
    483      1      6    126       1.000           30.00    
    484      1      6    127       1.000           30.00    
    485      1      6    128       1.000           30.00    
    486      1      6    129       1.000           30.00    
    487      1      6    130       1.000           30.00    
    488      1      6    131       1.000           30.00    
    489      1      6    132       1.000           30.00    
    490      1      6    133       1.000           30.00    
    491      1      6    134       1.000           30.00    
    492      1      6    135       1.000           30.00    
    493      1      6    136       1.000           30.00    
    494      1      6    137       1.000           30.00    
    495      1      6    138       1.000           30.00    
    496      1      6    139       1.000           30.00    
    497      1      6    140       1.000           30.00    
    498      1      6    141       1.000           30.00    
    499      1      6    142       1.000           30.00    
    500      1      6    143       1.000           30.00    
    501      1      6    144       1.000           30.00    
    502      1      6    145       1.000           30.00    
    503      1      6    146       1.000           30.00    
    504      1      6    147       1.000           30.00    
    505      1      6    148       1.000           30.00    
    506      1      6    149       1.000           30.00    
    507      1      6    150       1.000           30.00    
    508      1      6    151       1.000           30.00    
    509      1      6    152       1.000           30.00    
    510      1      6    153       1.000           30.00    
    511      1      6    154       1.000           30.00    
    512      1      6    155       1.000           30.00    
    513      1      6    156       1.000           30.00    
    514      1      6    157       1.000           30.00    
    515      1      6    158       1.000           30.00    
    516      1      6    159       1.000           30.00    
    517      1      6    160       1.000           30.00    
    518      1      6    161       1.000           30.00    
    519      1      6    162       1.000           30.00    
    520      1      6    163       1.000           30.00    
    521      1      6    164       1.000           30.00    
    522      1      6    165       1.000           30.00    
    523      1      6    166       1.000           30.00    
    524      1      6    167       1.000           30.00    
    525      1      6    168       1.000           30.00    
    526      1      6    169       1.000           30.00    
    527      1      6    170       1.000           30.00    
    528      1      6    171       1.000           30.00    
    529      1      6    172       1.000           30.00    
    530      1      6    173       1.000           30.00    
    531      1      6    174       1.000           30.00    
    532      1      6    175       1.000           30.00    
    533      1      6    176       1.000           30.00    
    534      1      6    177       1.000           30.00    
    535      1      6    178       1.000           30.00    
    536      1      6    179       1.000           30.00    
    537      1      6    180       1.000           30.00    
    538      1      6    181       1.000           30.00    
    539      1      6    182       1.000           30.00    
    540      1      6    183       1.000           30.00    
    541      1      6    184       1.000           30.00    
    542      1      6    185       1.000           30.00    
    543      1      6    186       1.000           30.00    
    544      1      6    187       1.000           30.00    
    545      1      6    188       1.000           30.00    
    546      1      6    189       1.000           30.00    
    547      1      6    190       1.000           30.00    
    548      1      6    191       1.000           30.00    
    549      1      6    192       1.000           30.00    
    550      1      6    193       1.000           30.00    
    551      1      6    194       1.000           30.00    
    552      1      6    195       1.000           30.00    
    553      1      6    196       1.000           30.00    
    554      1      6    197       1.000           30.00    
    555      1      6    198       1.000           30.00    
    556      1      6    199       1.000           30.00    
    557      1      7     87       1.000           30.00    
    558      1      7     88       1.000           30.00    
    559      1      7     89       1.000           30.00    
    560      1      7     90       1.000           30.00    
    561      1      7     91       1.000           30.00    
    562      1      7     92       1.000           30.00    
    563      1      7     93       1.000           30.00    
    564      1      7     94       1.000           30.00    
    565      1      7     95       1.000           30.00    
    566      1      7     96       1.000           30.00    
    567      1      7     97       1.000           30.00    
    568      1      7     98       1.000           30.00    
    569      1      7     99       1.000           30.00    
    570      1      7    100       1.000           30.00    
    571      1      7    101       1.000           30.00    
    572      1      7    102       1.000           30.00    
    573      1      7    103       1.000           30.00    
    574      1      7    104       1.000           30.00    
    575      1      7    105       1.000           30.00    
    576      1      7    106       1.000           30.00    
    577      1      7    107       1.000           30.00    
    578      1      7    108       1.000           30.00    
    579      1      7    109       1.000           30.00    
    580      1      7    110       1.000           30.00    
    581      1      7    111       1.000           30.00    
    582      1      7    112       1.000           30.00    
    583      1      7    113       1.000           30.00    
    584      1      7    114       1.000           30.00    
    585      1      7    115       1.000           30.00    
    586      1      7    116       1.000           30.00    
    587      1      7    117       1.000           30.00    
    588      1      7    118       1.000           30.00    
    589      1      7    121       1.000           30.00    
    590      1      7    122       1.000           30.00    
    591      1      7    123       1.000           30.00    
    592      1      7    124       1.000           30.00    
    593      1      7    125       1.000           30.00    
    594      1      7    126       1.000           30.00    
    595      1      7    127       1.000           30.00    
    596      1      7    128       1.000           30.00    
    597      1      7    129       1.000           30.00    
    598      1      7    130       1.000           30.00    
    599      1      7    131       1.000           30.00    
    600      1      7    132       1.000           30.00    
    601      1      7    133       1.000           30.00    
    602      1      7    134       1.000           30.00    
    603      1      7    135       1.000           30.00    
    604      1      7    136       1.000           30.00    
    605      1      7    137       1.000           30.00    
    606      1      7    138       1.000           30.00    
    607      1      7    139       1.000           30.00    
    608      1      7    140       1.000           30.00    
    609      1      7    141       1.000           30.00    
    610      1      7    142       1.000           30.00    
    611      1      7    143       1.000           30.00    
    612      1      7    144       1.000           30.00    
    613      1      7    145       1.000           30.00    
    614      1      7    146       1.000           30.00    
    615      1      7    147       1.000           30.00    
    616      1      7    148       1.000           30.00    
    617      1      7    149       1.000           30.00    
    618      1      7    150       1.000           30.00    
    619      1      7    151       1.000           30.00    
    620      1      7    152       1.000           30.00    
    621      1      7    153       1.000           30.00    
    622      1      7    154       1.000           30.00    
    623      1      7    155       1.000           30.00    
    624      1      7    156       1.000           30.00    
    625      1      7    157       1.000           30.00    
    626      1      7    158       1.000           30.00    
    627      1      7    159       1.000           30.00    
    628      1      7    160       1.000           30.00    
    629      1      7    161       1.000           30.00    
    630      1      7    162       1.000           30.00    
    631      1      7    163       1.000           30.00    
    632      1      7    164       1.000           30.00    
    633      1      7    165       1.000           30.00    
    634      1      7    166       1.000           30.00    
    635      1      7    167       1.000           30.00    
    636      1      7    168       1.000           30.00    
    637      1      7    169       1.000           30.00    
    638      1      7    170       1.000           30.00    
    639      1      7    171       1.000           30.00    
    640      1      7    172       1.000           30.00    
    641      1      7    173       1.000           30.00    
    642      1      7    174       1.000           30.00    
    643      1      7    175       1.000           30.00    
    644      1      7    176       1.000           30.00    
    645      1      7    177       1.000           30.00    
    646      1      7    178       1.000           30.00    
    647      1      7    179       1.000           30.00    
    648      1      7    180       1.000           30.00    
    649      1      7    181       1.000           30.00    
    650      1      7    182       1.000           30.00    
    651      1      7    183       1.000           30.00    
    652      1      7    184       1.000           30.00    
    653      1      7    185       1.000           30.00    
    654      1      7    186       1.000           30.00    
    655      1      7    187       1.000           30.00    
    656      1      7    188       1.000           30.00    
    657      1      7    189       1.000           30.00    
    658      1      7    190       1.000           30.00    
    659      1      7    191       1.000           30.00    
    660      1      7    192       1.000           30.00    
    661      1      7    193       1.000           30.00    
    662      1      7    194       1.000           30.00    
    663      1      7    195       1.000           30.00    
    664      1      7    196       1.000           30.00    
    665      1      7    197       1.000           30.00    
    666      1      7    198       1.000           30.00    
    667      1      7    199       1.000           30.00    
    668      1      8     86       1.000           30.00    
    669      1      8     87       1.000           30.00    
    670      1      8     88       1.000           30.00    
    671      1      8     89       1.000           30.00    
    672      1      8     90       1.000           30.00    
    673      1      8     91       1.000           30.00    
    674      1      8     92       1.000           30.00    
    675      1      8     93       1.000           30.00    
    676      1      8     94       1.000           30.00    
    677      1      8     95       1.000           30.00    
    678      1      8     96       1.000           30.00    
    679      1      8     97       1.000           30.00    
    680      1      8     98       1.000           30.00    
    681      1      8     99       1.000           30.00    
    682      1      8    100       1.000           30.00    
    683      1      8    101       1.000           30.00    
    684      1      8    102       1.000           30.00    
    685      1      8    103       1.000           30.00    
    686      1      8    104       1.000           30.00    
    687      1      8    105       1.000           30.00    
    688      1      8    106       1.000           30.00    
    689      1      8    107       1.000           30.00    
    690      1      8    108       1.000           30.00    
    691      1      8    109       1.000           30.00    
    692      1      8    110       1.000           30.00    
    693      1      8    111       1.000           30.00    
    694      1      8    112       1.000           30.00    
    695      1      8    113       1.000           30.00    
    696      1      8    114       1.000           30.00    
    697      1      8    115       1.000           30.00    
    698      1      8    116       1.000           30.00    
    699      1      8    121       1.000           30.00    
    700      1      8    122       1.000           30.00    
    701      1      8    123       1.000           30.00    
    702      1      8    124       1.000           30.00    
    703      1      8    125       1.000           30.00    
    704      1      8    126       1.000           30.00    
    705      1      8    127       1.000           30.00    
    706      1      8    128       1.000           30.00    
    707      1      8    129       1.000           30.00    
    708      1      8    130       1.000           30.00    
    709      1      8    131       1.000           30.00    
    710      1      8    132       1.000           30.00    
    711      1      8    133       1.000           30.00    
    712      1      8    134       1.000           30.00    
    713      1      8    135       1.000           30.00    
    714      1      8    136       1.000           30.00    
    715      1      8    137       1.000           30.00    
    716      1      8    138       1.000           30.00    
    717      1      8    139       1.000           30.00    
    718      1      8    140       1.000           30.00    
    719      1      8    141       1.000           30.00    
    720      1      8    142       1.000           30.00    
    721      1      8    143       1.000           30.00    
    722      1      8    144       1.000           30.00    
    723      1      8    145       1.000           30.00    
    724      1      8    146       1.000           30.00    
    725      1      8    147       1.000           30.00    
    726      1      8    148       1.000           30.00    
    727      1      8    149       1.000           30.00    
    728      1      8    150       1.000           30.00    
    729      1      8    151       1.000           30.00    
    730      1      8    152       1.000           30.00    
    731      1      8    153       1.000           30.00    
    732      1      8    154       1.000           30.00    
    733      1      8    155       1.000           30.00    
    734      1      8    156       1.000           30.00    
    735      1      8    157       1.000           30.00    
    736      1      8    158       1.000           30.00    
    737      1      8    159       1.000           30.00    
    738      1      8    160       1.000           30.00    
    739      1      8    161       1.000           30.00    
    740      1      8    162       1.000           30.00    
    741      1      8    163       1.000           30.00    
    742      1      8    164       1.000           30.00    
    743      1      8    165       1.000           30.00    
    744      1      8    166       1.000           30.00    
    745      1      8    167       1.000           30.00    
    746      1      8    168       1.000           30.00    
    747      1      8    169       1.000           30.00    
    748      1      8    170       1.000           30.00    
    749      1      8    171       1.000           30.00    
    750      1      8    172       1.000           30.00    
    751      1      8    173       1.000           30.00    
    752      1      8    174       1.000           30.00    
    753      1      8    175       1.000           30.00    
    754      1      8    176       1.000           30.00    
    755      1      8    177       1.000           30.00    
    756      1      8    178       1.000           30.00    
    757      1      8    179       1.000           30.00    
    758      1      8    180       1.000           30.00    
    759      1      8    181       1.000           30.00    
    760      1      8    182       1.000           30.00    
    761      1      8    183       1.000           30.00    
    762      1      8    184       1.000           30.00    
    763      1      8    185       1.000           30.00    
    764      1      8    186       1.000           30.00    
    765      1      8    187       1.000           30.00    
    766      1      8    188       1.000           30.00    
    767      1      8    189       1.000           30.00    
    768      1      8    190       1.000           30.00    
    769      1      8    191       1.000           30.00    
    770      1      8    192       1.000           30.00    
    771      1      8    193       1.000           30.00    
    772      1      8    194       1.000           30.00    
    773      1      8    195       1.000           30.00    
    774      1      8    196       1.000           30.00    
    775      1      8    197       1.000           30.00    
    776      1      8    198       1.000           30.00    
    777      1      8    199       1.000           30.00    
    778      1      9     85       1.000           30.00    
    779      1      9     86       1.000           30.00    
    780      1      9     87       1.000           30.00    
    781      1      9     88       1.000           30.00    
    782      1      9     89       1.000           30.00    
    783      1      9     90       1.000           30.00    
    784      1      9     91       1.000           30.00    
    785      1      9     92       1.000           30.00    
    786      1      9     93       1.000           30.00    
    787      1      9     94       1.000           30.00    
    788      1      9     95       1.000           30.00    
    789      1      9     96       1.000           30.00    
    790      1      9     97       1.000           30.00    
    791      1      9     98       1.000           30.00    
    792      1      9     99       1.000           30.00    
    793      1      9    100       1.000           30.00    
    794      1      9    101       1.000           30.00    
    795      1      9    102       1.000           30.00    
    796      1      9    103       1.000           30.00    
    797      1      9    104       1.000           30.00    
    798      1      9    105       1.000           30.00    
    799      1      9    106       1.000           30.00    
    800      1      9    107       1.000           30.00    
    801      1      9    108       1.000           30.00    
    802      1      9    109       1.000           30.00    
    803      1      9    110       1.000           30.00    
    804      1      9    111       1.000           30.00    
    805      1      9    112       1.000           30.00    
    806      1      9    113       1.000           30.00    
    807      1      9    114       1.000           30.00    
    808      1      9    115       1.000           30.00    
    809      1      9    120       1.000           30.00    
    810      1      9    121       1.000           30.00    
    811      1      9    122       1.000           30.00    
    812      1      9    123       1.000           30.00    
    813      1      9    124       1.000           30.00    
    814      1      9    125       1.000           30.00    
    815      1      9    126       1.000           30.00    
    816      1      9    127       1.000           30.00    
    817      1      9    128       1.000           30.00    
    818      1      9    129       1.000           30.00    
    819      1      9    130       1.000           30.00    
    820      1      9    131       1.000           30.00    
    821      1      9    132       1.000           30.00    
    822      1      9    133       1.000           30.00    
    823      1      9    134       1.000           30.00    
    824      1      9    135       1.000           30.00    
    825      1      9    136       1.000           30.00    
    826      1      9    137       1.000           30.00    
    827      1      9    138       1.000           30.00    
    828      1      9    139       1.000           30.00    
    829      1      9    140       1.000           30.00    
    830      1      9    141       1.000           30.00    
    831      1      9    142       1.000           30.00    
    832      1      9    143       1.000           30.00    
    833      1      9    144       1.000           30.00    
    834      1      9    145       1.000           30.00    
    835      1      9    146       1.000           30.00    
    836      1      9    147       1.000           30.00    
    837      1      9    148       1.000           30.00    
    838      1      9    149       1.000           30.00    
    839      1      9    150       1.000           30.00    
    840      1      9    151       1.000           30.00    
    841      1      9    152       1.000           30.00    
    842      1      9    153       1.000           30.00    
    843      1      9    154       1.000           30.00    
    844      1      9    155       1.000           30.00    
    845      1      9    156       1.000           30.00    
    846      1      9    157       1.000           30.00    
    847      1      9    158       1.000           30.00    
    848      1      9    159       1.000           30.00    
    849      1      9    160       1.000           30.00    
    850      1      9    161       1.000           30.00    
    851      1      9    162       1.000           30.00    
    852      1      9    163       1.000           30.00    
    853      1      9    164       1.000           30.00    
    854      1      9    165       1.000           30.00    
    855      1      9    166       1.000           30.00    
    856      1      9    167       1.000           30.00    
    857      1      9    168       1.000           30.00    
    858      1      9    169       1.000           30.00    
    859      1      9    170       1.000           30.00    
    860      1      9    171       1.000           30.00    
    861      1      9    172       1.000           30.00    
    862      1      9    173       1.000           30.00    
    863      1      9    174       1.000           30.00    
    864      1      9    175       1.000           30.00    
    865      1      9    176       1.000           30.00    
    866      1      9    177       1.000           30.00    
    867      1      9    178       1.000           30.00    
    868      1      9    179       1.000           30.00    
    869      1      9    180       1.000           30.00    
    870      1      9    181       1.000           30.00    
    871      1      9    182       1.000           30.00    
    872      1      9    183       1.000           30.00    
    873      1      9    184       1.000           30.00    
    874      1      9    185       1.000           30.00    
    875      1      9    186       1.000           30.00    
    876      1      9    187       1.000           30.00    
    877      1      9    188       1.000           30.00    
    878      1      9    189       1.000           30.00    
    879      1      9    190       1.000           30.00    
    880      1      9    191       1.000           30.00    
    881      1      9    192       1.000           30.00    
    882      1      9    193       1.000           30.00    
    883      1      9    194       1.000           30.00    
    884      1      9    195       1.000           30.00    
    885      1      9    196       1.000           30.00    
    886      1      9    197       1.000           30.00    
    887      1      9    198       1.000           30.00    
    888      1      9    199       1.000           30.00    
    889      1     10     84       1.000           30.00    
    890      1     10     85       1.000           30.00    
    891      1     10     86       1.000           30.00    
    892      1     10     87       1.000           30.00    
    893      1     10     88       1.000           30.00    
    894      1     10     89       1.000           30.00    
    895      1     10     90       1.000           30.00    
    896      1     10     91       1.000           30.00    
    897      1     10     92       1.000           30.00    
    898      1     10     93       1.000           30.00    
    899      1     10     94       1.000           30.00    
    900      1     10     95       1.000           30.00    
    901      1     10     96       1.000           30.00    
    902      1     10     97       1.000           30.00    
    903      1     10     98       1.000           30.00    
    904      1     10     99       1.000           30.00    
    905      1     10    100       1.000           30.00    
    906      1     10    101       1.000           30.00    
    907      1     10    102       1.000           30.00    
    908      1     10    103       1.000           30.00    
    909      1     10    104       1.000           30.00    
    910      1     10    105       1.000           30.00    
    911      1     10    106       1.000           30.00    
    912      1     10    107       1.000           30.00    
    913      1     10    108       1.000           30.00    
    914      1     10    109       1.000           30.00    
    915      1     10    110       1.000           30.00    
    916      1     10    111       1.000           30.00    
    917      1     10    112       1.000           30.00    
    918      1     10    114       1.000           30.00    
    919      1     10    120       1.000           30.00    
    920      1     10    121       1.000           30.00    
    921      1     10    122       1.000           30.00    
    922      1     10    123       1.000           30.00    
    923      1     10    124       1.000           30.00    
    924      1     10    125       1.000           30.00    
    925      1     10    126       1.000           30.00    
    926      1     10    127       1.000           30.00    
    927      1     10    128       1.000           30.00    
    928      1     10    129       1.000           30.00    
    929      1     10    130       1.000           30.00    
    930      1     10    131       1.000           30.00    
    931      1     10    132       1.000           30.00    
    932      1     10    133       1.000           30.00    
    933      1     10    134       1.000           30.00    
    934      1     10    135       1.000           30.00    
    935      1     10    136       1.000           30.00    
    936      1     10    137       1.000           30.00    
    937      1     10    138       1.000           30.00    
    938      1     10    139       1.000           30.00    
    939      1     10    140       1.000           30.00    
    940      1     10    141       1.000           30.00    
    941      1     10    142       1.000           30.00    
    942      1     10    143       1.000           30.00    
    943      1     10    144       1.000           30.00    
    944      1     10    145       1.000           30.00    
    945      1     10    146       1.000           30.00    
    946      1     10    147       1.000           30.00    
    947      1     10    148       1.000           30.00    
    948      1     10    149       1.000           30.00    
    949      1     10    150       1.000           30.00    
    950      1     10    151       1.000           30.00    
    951      1     10    152       1.000           30.00    
    952      1     10    153       1.000           30.00    
    953      1     10    154       1.000           30.00    
    954      1     10    155       1.000           30.00    
    955      1     10    156       1.000           30.00    
    956      1     10    157       1.000           30.00    
    957      1     10    158       1.000           30.00    
    958      1     10    159       1.000           30.00    
    959      1     10    160       1.000           30.00    
    960      1     10    161       1.000           30.00    
    961      1     10    162       1.000           30.00    
    962      1     10    163       1.000           30.00    
    963      1     10    164       1.000           30.00    
    964      1     10    165       1.000           30.00    
    965      1     10    166       1.000           30.00    
    966      1     10    167       1.000           30.00    
    967      1     10    168       1.000           30.00    
    968      1     10    169       1.000           30.00    
    969      1     10    170       1.000           30.00    
    970      1     10    171       1.000           30.00    
    971      1     10    172       1.000           30.00    
    972      1     10    173       1.000           30.00    
    973      1     10    174       1.000           30.00    
    974      1     10    175       1.000           30.00    
    975      1     10    176       1.000           30.00    
    976      1     10    177       1.000           30.00    
    977      1     10    178       1.000           30.00    
    978      1     10    179       1.000           30.00    
    979      1     10    180       1.000           30.00    
    980      1     10    181       1.000           30.00    
    981      1     10    182       1.000           30.00    
    982      1     10    183       1.000           30.00    
    983      1     10    184       1.000           30.00    
    984      1     10    185       1.000           30.00    
    985      1     10    186       1.000           30.00    
    986      1     10    187       1.000           30.00    
    987      1     10    188       1.000           30.00    
    988      1     10    189       1.000           30.00    
    989      1     10    190       1.000           30.00    
    990      1     10    191       1.000           30.00    
    991      1     10    192       1.000           30.00    
    992      1     10    193       1.000           30.00    
    993      1     10    194       1.000           30.00    
    994      1     10    195       1.000           30.00    
    995      1     10    196       1.000           30.00    
    996      1     10    197       1.000           30.00    
    997      1     10    198       1.000           30.00    
    998      1     10    199       1.000           30.00    
    999      1     11     83       1.000           30.00    
   1000      1     11     84       1.000           30.00    
   1001      1     11     85       1.000           30.00    
   1002      1     11     86       1.000           30.00    
   1003      1     11     87       1.000           30.00    
   1004      1     11     88       1.000           30.00    
   1005      1     11     89       1.000           30.00    
   1006      1     11     90       1.000           30.00    
   1007      1     11     91       1.000           30.00    
   1008      1     11     92       1.000           30.00    
   1009      1     11     93       1.000           30.00    
   1010      1     11     94       1.000           30.00    
   1011      1     11     95       1.000           30.00    
   1012      1     11     96       1.000           30.00    
   1013      1     11     97       1.000           30.00    
   1014      1     11     98       1.000           30.00    
   1015      1     11     99       1.000           30.00    
   1016      1     11    100       1.000           30.00    
   1017      1     11    101       1.000           30.00    
   1018      1     11    102       1.000           30.00    
   1019      1     11    103       1.000           30.00    
   1020      1     11    104       1.000           30.00    
   1021      1     11    105       1.000           30.00    
   1022      1     11    106       1.000           30.00    
   1023      1     11    107       1.000           30.00    
   1024      1     11    108       1.000           30.00    
   1025      1     11    109       1.000           30.00    
   1026      1     11    110       1.000           30.00    
   1027      1     11    111       1.000           30.00    
   1028      1     11    112       1.000           30.00    
   1029      1     11    119       1.000           30.00    
   1030      1     11    120       1.000           30.00    
   1031      1     11    121       1.000           30.00    
   1032      1     11    122       1.000           30.00    
   1033      1     11    123       1.000           30.00    
   1034      1     11    124       1.000           30.00    
   1035      1     11    125       1.000           30.00    
   1036      1     11    126       1.000           30.00    
   1037      1     11    128       1.000           30.00    
   1038      1     11    129       1.000           30.00    
   1039      1     11    130       1.000           30.00    
   1040      1     11    131       1.000           30.00    
   1041      1     11    132       1.000           30.00    
   1042      1     11    133       1.000           30.00    
   1043      1     11    134       1.000           30.00    
   1044      1     11    135       1.000           30.00    
   1045      1     11    136       1.000           30.00    
   1046      1     11    137       1.000           30.00    
   1047      1     11    138       1.000           30.00    
   1048      1     11    139       1.000           30.00    
   1049      1     11    140       1.000           30.00    
   1050      1     11    141       1.000           30.00    
   1051      1     11    142       1.000           30.00    
   1052      1     11    143       1.000           30.00    
   1053      1     11    144       1.000           30.00    
   1054      1     11    145       1.000           30.00    
   1055      1     11    146       1.000           30.00    
   1056      1     11    147       1.000           30.00    
   1057      1     11    148       1.000           30.00    
   1058      1     11    149       1.000           30.00    
   1059      1     11    150       1.000           30.00    
   1060      1     11    151       1.000           30.00    
   1061      1     11    152       1.000           30.00    
   1062      1     11    153       1.000           30.00    
   1063      1     11    154       1.000           30.00    
   1064      1     11    155       1.000           30.00    
   1065      1     11    156       1.000           30.00    
   1066      1     11    157       1.000           30.00    
   1067      1     11    158       1.000           30.00    
   1068      1     11    159       1.000           30.00    
   1069      1     11    160       1.000           30.00    
   1070      1     11    161       1.000           30.00    
   1071      1     11    162       1.000           30.00    
   1072      1     11    163       1.000           30.00    
   1073      1     11    164       1.000           30.00    
   1074      1     11    165       1.000           30.00    
   1075      1     11    166       1.000           30.00    
   1076      1     11    167       1.000           30.00    
   1077      1     11    168       1.000           30.00    
   1078      1     11    169       1.000           30.00    
   1079      1     11    170       1.000           30.00    
   1080      1     11    171       1.000           30.00    
   1081      1     11    172       1.000           30.00    
   1082      1     11    173       1.000           30.00    
   1083      1     11    174       1.000           30.00    
   1084      1     11    175       1.000           30.00    
   1085      1     11    176       1.000           30.00    
   1086      1     11    177       1.000           30.00    
   1087      1     11    178       1.000           30.00    
   1088      1     11    179       1.000           30.00    
   1089      1     11    181       1.000           30.00    
   1090      1     11    182       1.000           30.00    
   1091      1     11    183       1.000           30.00    
   1092      1     11    184       1.000           30.00    
   1093      1     11    185       1.000           30.00    
   1094      1     11    186       1.000           30.00    
   1095      1     11    187       1.000           30.00    
   1096      1     11    190       1.000           30.00    
   1097      1     11    191       1.000           30.00    
   1098      1     11    192       1.000           30.00    
   1099      1     11    193       1.000           30.00    
   1100      1     11    194       1.000           30.00    
   1101      1     11    195       1.000           30.00    
   1102      1     11    196       1.000           30.00    
   1103      1     11    197       1.000           30.00    
   1104      1     11    198       1.000           30.00    
   1105      1     11    199       1.000           30.00    
   1106      1     12     82       1.000           30.00    
   1107      1     12     83       1.000           30.00    
   1108      1     12     84       1.000           30.00    
   1109      1     12     85       1.000           30.00    
   1110      1     12     86       1.000           30.00    
   1111      1     12     87       1.000           30.00    
   1112      1     12     88       1.000           30.00    
   1113      1     12     89       1.000           30.00    
   1114      1     12     90       1.000           30.00    
   1115      1     12     91       1.000           30.00    
   1116      1     12     92       1.000           30.00    
   1117      1     12     93       1.000           30.00    
   1118      1     12     94       1.000           30.00    
   1119      1     12     95       1.000           30.00    
   1120      1     12     96       1.000           30.00    
   1121      1     12     97       1.000           30.00    
   1122      1     12     98       1.000           30.00    
   1123      1     12     99       1.000           30.00    
   1124      1     12    100       1.000           30.00    
   1125      1     12    101       1.000           30.00    
   1126      1     12    102       1.000           30.00    
   1127      1     12    103       1.000           30.00    
   1128      1     12    104       1.000           30.00    
   1129      1     12    105       1.000           30.00    
   1130      1     12    106       1.000           30.00    
   1131      1     12    107       1.000           30.00    
   1132      1     12    118       1.000           30.00    
   1133      1     12    119       1.000           30.00    
   1134      1     12    120       1.000           30.00    
   1135      1     12    121       1.000           30.00    
   1136      1     12    128       1.000           30.00    
   1137      1     12    129       1.000           30.00    
   1138      1     12    130       1.000           30.00    
   1139      1     12    131       1.000           30.00    
   1140      1     12    132       1.000           30.00    
   1141      1     12    133       1.000           30.00    
   1142      1     12    134       1.000           30.00    
   1143      1     12    135       1.000           30.00    
   1144      1     12    136       1.000           30.00    
   1145      1     12    137       1.000           30.00    
   1146      1     12    138       1.000           30.00    
   1147      1     12    139       1.000           30.00    
   1148      1     12    141       1.000           30.00    
   1149      1     12    142       1.000           30.00    
   1150      1     12    143       1.000           30.00    
   1151      1     12    145       1.000           30.00    
   1152      1     12    146       1.000           30.00    
   1153      1     12    147       1.000           30.00    
   1154      1     12    148       1.000           30.00    
   1155      1     12    149       1.000           30.00    
   1156      1     12    150       1.000           30.00    
   1157      1     12    151       1.000           30.00    
   1158      1     12    152       1.000           30.00    
   1159      1     12    153       1.000           30.00    
   1160      1     12    154       1.000           30.00    
   1161      1     12    155       1.000           30.00    
   1162      1     12    156       1.000           30.00    
   1163      1     12    157       1.000           30.00    
   1164      1     12    158       1.000           30.00    
   1165      1     12    159       1.000           30.00    
   1166      1     12    160       1.000           30.00    
   1167      1     12    161       1.000           30.00    
   1168      1     12    162       1.000           30.00    
   1169      1     12    163       1.000           30.00    
   1170      1     12    164       1.000           30.00    
   1171      1     12    165       1.000           30.00    
   1172      1     12    166       1.000           30.00    
   1173      1     12    167       1.000           30.00    
   1174      1     12    168       1.000           30.00    
   1175      1     12    169       1.000           30.00    
   1176      1     12    170       1.000           30.00    
   1177      1     12    171       1.000           30.00    
   1178      1     12    172       1.000           30.00    
   1179      1     12    173       1.000           30.00    
   1180      1     12    174       1.000           30.00    
   1181      1     12    175       1.000           30.00    
   1182      1     12    176       1.000           30.00    
   1183      1     12    177       1.000           30.00    
   1184      1     12    178       1.000           30.00    
   1185      1     12    179       1.000           30.00    
   1186      1     12    183       1.000           30.00    
   1187      1     12    184       1.000           30.00    
   1188      1     12    185       1.000           30.00    
   1189      1     12    186       1.000           30.00    
   1190      1     12    189       1.000           30.00    
   1191      1     12    190       1.000           30.00    
   1192      1     12    191       1.000           30.00    
   1193      1     12    192       1.000           30.00    
   1194      1     12    193       1.000           30.00    
   1195      1     12    194       1.000           30.00    
   1196      1     12    195       1.000           30.00    
   1197      1     12    196       1.000           30.00    
   1198      1     12    197       1.000           30.00    
   1199      1     12    198       1.000           30.00    
   1200      1     12    199       1.000           30.00    
   1201      1     13     81       1.000           30.00    
   1202      1     13     82       1.000           30.00    
   1203      1     13     83       1.000           30.00    
   1204      1     13     84       1.000           30.00    
   1205      1     13     85       1.000           30.00    
   1206      1     13     86       1.000           30.00    
   1207      1     13     87       1.000           30.00    
   1208      1     13     88       1.000           30.00    
   1209      1     13     89       1.000           30.00    
   1210      1     13     90       1.000           30.00    
   1211      1     13     91       1.000           30.00    
   1212      1     13     92       1.000           30.00    
   1213      1     13     93       1.000           30.00    
   1214      1     13     94       1.000           30.00    
   1215      1     13     95       1.000           30.00    
   1216      1     13     96       1.000           30.00    
   1217      1     13     97       1.000           30.00    
   1218      1     13     98       1.000           30.00    
   1219      1     13     99       1.000           30.00    
   1220      1     13    100       1.000           30.00    
   1221      1     13    101       1.000           30.00    
   1222      1     13    102       1.000           30.00    
   1223      1     13    103       1.000           30.00    
   1224      1     13    104       1.000           30.00    
   1225      1     13    105       1.000           30.00    
   1226      1     13    106       1.000           30.00    
   1227      1     13    107       1.000           30.00    
   1228      1     13    108       1.000           30.00    
   1229      1     13    118       1.000           30.00    
   1230      1     13    119       1.000           30.00    
   1231      1     13    120       1.000           30.00    
   1232      1     13    121       1.000           30.00    
   1233      1     13    128       1.000           30.00    
   1234      1     13    129       1.000           30.00    
   1235      1     13    130       1.000           30.00    
   1236      1     13    133       1.000           30.00    
   1237      1     13    134       1.000           30.00    
   1238      1     13    135       1.000           30.00    
   1239      1     13    136       1.000           30.00    
   1240      1     13    138       1.000           30.00    
   1241      1     13    139       1.000           30.00    
   1242      1     13    145       1.000           30.00    
   1243      1     13    146       1.000           30.00    
   1244      1     13    149       1.000           30.00    
   1245      1     13    150       1.000           30.00    
   1246      1     13    151       1.000           30.00    
   1247      1     13    152       1.000           30.00    
   1248      1     13    153       1.000           30.00    
   1249      1     13    154       1.000           30.00    
   1250      1     13    155       1.000           30.00    
   1251      1     13    156       1.000           30.00    
   1252      1     13    157       1.000           30.00    
   1253      1     13    158       1.000           30.00    
   1254      1     13    159       1.000           30.00    
   1255      1     13    160       1.000           30.00    
   1256      1     13    161       1.000           30.00    
   1257      1     13    162       1.000           30.00    
   1258      1     13    163       1.000           30.00    
   1259      1     13    164       1.000           30.00    
   1260      1     13    165       1.000           30.00    
   1261      1     13    166       1.000           30.00    
   1262      1     13    167       1.000           30.00    
   1263      1     13    168       1.000           30.00    
   1264      1     13    169       1.000           30.00    
   1265      1     13    170       1.000           30.00    
   1266      1     13    171       1.000           30.00    
   1267      1     13    172       1.000           30.00    
   1268      1     13    173       1.000           30.00    
   1269      1     13    174       1.000           30.00    
   1270      1     13    175       1.000           30.00    
   1271      1     13    176       1.000           30.00    
   1272      1     13    177       1.000           30.00    
   1273      1     13    178       1.000           30.00    
   1274      1     13    189       1.000           30.00    
   1275      1     13    190       1.000           30.00    
   1276      1     13    191       1.000           30.00    
   1277      1     13    192       1.000           30.00    
   1278      1     13    193       1.000           30.00    
   1279      1     13    194       1.000           30.00    
   1280      1     13    195       1.000           30.00    
   1281      1     13    196       1.000           30.00    
   1282      1     13    197       1.000           30.00    
   1283      1     13    198       1.000           30.00    
   1284      1     13    199       1.000           30.00    
   1285      1     14     77       1.000           30.00    
   1286      1     14     78       1.000           30.00    
   1287      1     14     79       1.000           30.00    
   1288      1     14     80       1.000           30.00    
   1289      1     14     81       1.000           30.00    
   1290      1     14     82       1.000           30.00    
   1291      1     14     83       1.000           30.00    
   1292      1     14     84       1.000           30.00    
   1293      1     14     85       1.000           30.00    
   1294      1     14     86       1.000           30.00    
   1295      1     14     87       1.000           30.00    
   1296      1     14     88       1.000           30.00    
   1297      1     14     89       1.000           30.00    
   1298      1     14     90       1.000           30.00    
   1299      1     14     91       1.000           30.00    
   1300      1     14     92       1.000           30.00    
   1301      1     14     93       1.000           30.00    
   1302      1     14     94       1.000           30.00    
   1303      1     14     95       1.000           30.00    
   1304      1     14     96       1.000           30.00    
   1305      1     14     97       1.000           30.00    
   1306      1     14     98       1.000           30.00    
   1307      1     14     99       1.000           30.00    
   1308      1     14    100       1.000           30.00    
   1309      1     14    101       1.000           30.00    
   1310      1     14    102       1.000           30.00    
   1311      1     14    103       1.000           30.00    
   1312      1     14    104       1.000           30.00    
   1313      1     14    105       1.000           30.00    
   1314      1     14    107       1.000           30.00    
   1315      1     14    108       1.000           30.00    
   1316      1     14    109       1.000           30.00    
   1317      1     14    128       1.000           30.00    
   1318      1     14    129       1.000           30.00    
   1319      1     14    132       1.000           30.00    
   1320      1     14    133       1.000           30.00    
   1321      1     14    134       1.000           30.00    
   1322      1     14    135       1.000           30.00    
   1323      1     14    136       1.000           30.00    
   1324      1     14    138       1.000           30.00    
   1325      1     14    139       1.000           30.00    
   1326      1     14    149       1.000           30.00    
   1327      1     14    150       1.000           30.00    
   1328      1     14    151       1.000           30.00    
   1329      1     14    152       1.000           30.00    
   1330      1     14    153       1.000           30.00    
   1331      1     14    154       1.000           30.00    
   1332      1     14    155       1.000           30.00    
   1333      1     14    156       1.000           30.00    
   1334      1     14    157       1.000           30.00    
   1335      1     14    158       1.000           30.00    
   1336      1     14    159       1.000           30.00    
   1337      1     14    160       1.000           30.00    
   1338      1     14    161       1.000           30.00    
   1339      1     14    162       1.000           30.00    
   1340      1     14    163       1.000           30.00    
   1341      1     14    164       1.000           30.00    
   1342      1     14    165       1.000           30.00    
   1343      1     14    166       1.000           30.00    
   1344      1     14    167       1.000           30.00    
   1345      1     14    168       1.000           30.00    
   1346      1     14    169       1.000           30.00    
   1347      1     14    170       1.000           30.00    
   1348      1     14    171       1.000           30.00    
   1349      1     14    172       1.000           30.00    
   1350      1     14    173       1.000           30.00    
   1351      1     14    174       1.000           30.00    
   1352      1     14    175       1.000           30.00    
   1353      1     14    177       1.000           30.00    
   1354      1     14    189       1.000           30.00    
   1355      1     14    190       1.000           30.00    
   1356      1     14    191       1.000           30.00    
   1357      1     14    192       1.000           30.00    
   1358      1     14    193       1.000           30.00    
   1359      1     14    194       1.000           30.00    
   1360      1     14    195       1.000           30.00    
   1361      1     14    196       1.000           30.00    
   1362      1     14    197       1.000           30.00    
   1363      1     14    198       1.000           30.00    
   1364      1     14    199       1.000           30.00    
   1365      1     15     72       1.000           30.00    
   1366      1     15     73       1.000           30.00    
   1367      1     15     74       1.000           30.00    
   1368      1     15     75       1.000           30.00    
   1369      1     15     76       1.000           30.00    
   1370      1     15     77       1.000           30.00    
   1371      1     15     78       1.000           30.00    
   1372      1     15     79       1.000           30.00    
   1373      1     15     80       1.000           30.00    
   1374      1     15     81       1.000           30.00    
   1375      1     15     82       1.000           30.00    
   1376      1     15     83       1.000           30.00    
   1377      1     15     84       1.000           30.00    
   1378      1     15     85       1.000           30.00    
   1379      1     15     86       1.000           30.00    
   1380      1     15     87       1.000           30.00    
   1381      1     15     88       1.000           30.00    
   1382      1     15     89       1.000           30.00    
   1383      1     15     90       1.000           30.00    
   1384      1     15     91       1.000           30.00    
   1385      1     15     92       1.000           30.00    
   1386      1     15     93       1.000           30.00    
   1387      1     15     94       1.000           30.00    
   1388      1     15     95       1.000           30.00    
   1389      1     15     96       1.000           30.00    
   1390      1     15     97       1.000           30.00    
   1391      1     15     98       1.000           30.00    
   1392      1     15     99       1.000           30.00    
   1393      1     15    100       1.000           30.00    
   1394      1     15    101       1.000           30.00    
   1395      1     15    102       1.000           30.00    
   1396      1     15    103       1.000           30.00    
   1397      1     15    104       1.000           30.00    
   1398      1     15    107       1.000           30.00    
   1399      1     15    108       1.000           30.00    
   1400      1     15    109       1.000           30.00    
   1401      1     15    132       1.000           30.00    
   1402      1     15    133       1.000           30.00    
   1403      1     15    134       1.000           30.00    
   1404      1     15    135       1.000           30.00    
   1405      1     15    136       1.000           30.00    
   1406      1     15    137       1.000           30.00    
   1407      1     15    139       1.000           30.00    
   1408      1     15    148       1.000           30.00    
   1409      1     15    149       1.000           30.00    
   1410      1     15    150       1.000           30.00    
   1411      1     15    151       1.000           30.00    
   1412      1     15    152       1.000           30.00    
   1413      1     15    153       1.000           30.00    
   1414      1     15    154       1.000           30.00    
   1415      1     15    155       1.000           30.00    
   1416      1     15    156       1.000           30.00    
   1417      1     15    158       1.000           30.00    
   1418      1     15    159       1.000           30.00    
   1419      1     15    160       1.000           30.00    
   1420      1     15    161       1.000           30.00    
   1421      1     15    162       1.000           30.00    
   1422      1     15    163       1.000           30.00    
   1423      1     15    164       1.000           30.00    
   1424      1     15    165       1.000           30.00    
   1425      1     15    166       1.000           30.00    
   1426      1     15    167       1.000           30.00    
   1427      1     15    168       1.000           30.00    
   1428      1     15    169       1.000           30.00    
   1429      1     15    170       1.000           30.00    
   1430      1     15    171       1.000           30.00    
   1431      1     15    172       1.000           30.00    
   1432      1     15    173       1.000           30.00    
   1433      1     15    174       1.000           30.00    
   1434      1     15    175       1.000           30.00    
   1435      1     15    189       1.000           30.00    
   1436      1     15    190       1.000           30.00    
   1437      1     15    191       1.000           30.00    
   1438      1     15    192       1.000           30.00    
   1439      1     15    193       1.000           30.00    
   1440      1     15    194       1.000           30.00    
   1441      1     15    195       1.000           30.00    
   1442      1     15    196       1.000           30.00    
   1443      1     15    197       1.000           30.00    
   1444      1     15    198       1.000           30.00    
   1445      1     15    199       1.000           30.00    
   1446      1     16     67       1.000           30.00    
   1447      1     16     68       1.000           30.00    
   1448      1     16     69       1.000           30.00    
   1449      1     16     70       1.000           30.00    
   1450      1     16     71       1.000           30.00    
   1451      1     16     72       1.000           30.00    
   1452      1     16     73       1.000           30.00    
   1453      1     16     74       1.000           30.00    
   1454      1     16     75       1.000           30.00    
   1455      1     16     76       1.000           30.00    
   1456      1     16     77       1.000           30.00    
   1457      1     16     78       1.000           30.00    
   1458      1     16     79       1.000           30.00    
   1459      1     16     80       1.000           30.00    
   1460      1     16     81       1.000           30.00    
   1461      1     16     82       1.000           30.00    
   1462      1     16     83       1.000           30.00    
   1463      1     16     84       1.000           30.00    
   1464      1     16     85       1.000           30.00    
   1465      1     16     86       1.000           30.00    
   1466      1     16     87       1.000           30.00    
   1467      1     16     88       1.000           30.00    
   1468      1     16     89       1.000           30.00    
   1469      1     16     90       1.000           30.00    
   1470      1     16     91       1.000           30.00    
   1471      1     16     92       1.000           30.00    
   1472      1     16     93       1.000           30.00    
   1473      1     16     94       1.000           30.00    
   1474      1     16     95       1.000           30.00    
   1475      1     16     96       1.000           30.00    
   1476      1     16     97       1.000           30.00    
   1477      1     16     98       1.000           30.00    
   1478      1     16     99       1.000           30.00    
   1479      1     16    100       1.000           30.00    
   1480      1     16    102       1.000           30.00    
   1481      1     16    132       1.000           30.00    
   1482      1     16    133       1.000           30.00    
   1483      1     16    134       1.000           30.00    
   1484      1     16    135       1.000           30.00    
   1485      1     16    136       1.000           30.00    
   1486      1     16    146       1.000           30.00    
   1487      1     16    147       1.000           30.00    
   1488      1     16    148       1.000           30.00    
   1489      1     16    149       1.000           30.00    
   1490      1     16    150       1.000           30.00    
   1491      1     16    151       1.000           30.00    
   1492      1     16    152       1.000           30.00    
   1493      1     16    153       1.000           30.00    
   1494      1     16    154       1.000           30.00    
   1495      1     16    155       1.000           30.00    
   1496      1     16    158       1.000           30.00    
   1497      1     16    159       1.000           30.00    
   1498      1     16    160       1.000           30.00    
   1499      1     16    161       1.000           30.00    
   1500      1     16    162       1.000           30.00    
   1501      1     16    164       1.000           30.00    
   1502      1     16    165       1.000           30.00    
   1503      1     16    166       1.000           30.00    
   1504      1     16    167       1.000           30.00    
   1505      1     16    168       1.000           30.00    
   1506      1     16    169       1.000           30.00    
   1507      1     16    170       1.000           30.00    
   1508      1     16    171       1.000           30.00    
   1509      1     16    172       1.000           30.00    
   1510      1     16    173       1.000           30.00    
   1511      1     16    174       1.000           30.00    
   1512      1     16    189       1.000           30.00    
   1513      1     16    190       1.000           30.00    
   1514      1     16    191       1.000           30.00    
   1515      1     16    192       1.000           30.00    
   1516      1     16    193       1.000           30.00    
   1517      1     16    194       1.000           30.00    
   1518      1     16    195       1.000           30.00    
   1519      1     16    196       1.000           30.00    
   1520      1     16    197       1.000           30.00    
   1521      1     16    198       1.000           30.00    
   1522      1     16    199       1.000           30.00    
   1523      1     17     64       1.000           30.00    
   1524      1     17     65       1.000           30.00    
   1525      1     17     66       1.000           30.00    
   1526      1     17     67       1.000           30.00    
   1527      1     17     68       1.000           30.00    
   1528      1     17     69       1.000           30.00    
   1529      1     17     70       1.000           30.00    
   1530      1     17     71       1.000           30.00    
   1531      1     17     72       1.000           30.00    
   1532      1     17     73       1.000           30.00    
   1533      1     17     74       1.000           30.00    
   1534      1     17     75       1.000           30.00    
   1535      1     17     76       1.000           30.00    
   1536      1     17     77       1.000           30.00    
   1537      1     17     78       1.000           30.00    
   1538      1     17     79       1.000           30.00    
   1539      1     17     80       1.000           30.00    
   1540      1     17     81       1.000           30.00    
   1541      1     17     82       1.000           30.00    
   1542      1     17     83       1.000           30.00    
   1543      1     17     84       1.000           30.00    
   1544      1     17     85       1.000           30.00    
   1545      1     17     86       1.000           30.00    
   1546      1     17     87       1.000           30.00    
   1547      1     17     88       1.000           30.00    
   1548      1     17     89       1.000           30.00    
   1549      1     17     90       1.000           30.00    
   1550      1     17     91       1.000           30.00    
   1551      1     17     92       1.000           30.00    
   1552      1     17     93       1.000           30.00    
   1553      1     17     94       1.000           30.00    
   1554      1     17     95       1.000           30.00    
   1555      1     17     96       1.000           30.00    
   1556      1     17     97       1.000           30.00    
   1557      1     17     98       1.000           30.00    
   1558      1     17     99       1.000           30.00    
   1559      1     17    100       1.000           30.00    
   1560      1     17    132       1.000           30.00    
   1561      1     17    133       1.000           30.00    
   1562      1     17    135       1.000           30.00    
   1563      1     17    146       1.000           30.00    
   1564      1     17    147       1.000           30.00    
   1565      1     17    148       1.000           30.00    
   1566      1     17    149       1.000           30.00    
   1567      1     17    150       1.000           30.00    
   1568      1     17    151       1.000           30.00    
   1569      1     17    152       1.000           30.00    
   1570      1     17    161       1.000           30.00    
   1571      1     17    162       1.000           30.00    
   1572      1     17    166       1.000           30.00    
   1573      1     17    167       1.000           30.00    
   1574      1     17    168       1.000           30.00    
   1575      1     17    169       1.000           30.00    
   1576      1     17    170       1.000           30.00    
   1577      1     17    171       1.000           30.00    
   1578      1     17    172       1.000           30.00    
   1579      1     17    173       1.000           30.00    
   1580      1     17    174       1.000           30.00    
   1581      1     17    189       1.000           30.00    
   1582      1     17    190       1.000           30.00    
   1583      1     17    191       1.000           30.00    
   1584      1     17    192       1.000           30.00    
   1585      1     17    193       1.000           30.00    
   1586      1     17    194       1.000           30.00    
   1587      1     17    195       1.000           30.00    
   1588      1     17    196       1.000           30.00    
   1589      1     17    197       1.000           30.00    
   1590      1     17    198       1.000           30.00    
   1591      1     17    199       1.000           30.00    
   1592      1     18     61       1.000           30.00    
   1593      1     18     62       1.000           30.00    
   1594      1     18     63       1.000           30.00    
   1595      1     18     64       1.000           30.00    
   1596      1     18     65       1.000           30.00    
   1597      1     18     66       1.000           30.00    
   1598      1     18     67       1.000           30.00    
   1599      1     18     68       1.000           30.00    
   1600      1     18     69       1.000           30.00    
   1601      1     18     70       1.000           30.00    
   1602      1     18     71       1.000           30.00    
   1603      1     18     72       1.000           30.00    
   1604      1     18     73       1.000           30.00    
   1605      1     18     74       1.000           30.00    
   1606      1     18     75       1.000           30.00    
   1607      1     18     76       1.000           30.00    
   1608      1     18     77       1.000           30.00    
   1609      1     18     78       1.000           30.00    
   1610      1     18     79       1.000           30.00    
   1611      1     18     80       1.000           30.00    
   1612      1     18     81       1.000           30.00    
   1613      1     18     82       1.000           30.00    
   1614      1     18     83       1.000           30.00    
   1615      1     18     84       1.000           30.00    
   1616      1     18     85       1.000           30.00    
   1617      1     18     86       1.000           30.00    
   1618      1     18     87       1.000           30.00    
   1619      1     18     88       1.000           30.00    
   1620      1     18     89       1.000           30.00    
   1621      1     18     90       1.000           30.00    
   1622      1     18     91       1.000           30.00    
   1623      1     18     92       1.000           30.00    
   1624      1     18     93       1.000           30.00    
   1625      1     18     94       1.000           30.00    
   1626      1     18     95       1.000           30.00    
   1627      1     18     96       1.000           30.00    
   1628      1     18     97       1.000           30.00    
   1629      1     18     98       1.000           30.00    
   1630      1     18     99       1.000           30.00    
   1631      1     18    132       1.000           30.00    
   1632      1     18    133       1.000           30.00    
   1633      1     18    147       1.000           30.00    
   1634      1     18    148       1.000           30.00    
   1635      1     18    149       1.000           30.00    
   1636      1     18    150       1.000           30.00    
   1637      1     18    162       1.000           30.00    
   1638      1     18    169       1.000           30.00    
   1639      1     18    170       1.000           30.00    
   1640      1     18    171       1.000           30.00    
   1641      1     18    172       1.000           30.00    
   1642      1     18    173       1.000           30.00    
   1643      1     18    174       1.000           30.00    
   1644      1     18    190       1.000           30.00    
   1645      1     18    191       1.000           30.00    
   1646      1     18    192       1.000           30.00    
   1647      1     18    193       1.000           30.00    
   1648      1     18    194       1.000           30.00    
   1649      1     18    195       1.000           30.00    
   1650      1     18    196       1.000           30.00    
   1651      1     18    197       1.000           30.00    
   1652      1     18    198       1.000           30.00    
   1653      1     18    199       1.000           30.00    
   1654      1     19     58       1.000           30.00    
   1655      1     19     59       1.000           30.00    
   1656      1     19     60       1.000           30.00    
   1657      1     19     61       1.000           30.00    
   1658      1     19     62       1.000           30.00    
   1659      1     19     63       1.000           30.00    
   1660      1     19     64       1.000           30.00    
   1661      1     19     65       1.000           30.00    
   1662      1     19     66       1.000           30.00    
   1663      1     19     67       1.000           30.00    
   1664      1     19     68       1.000           30.00    
   1665      1     19     69       1.000           30.00    
   1666      1     19     70       1.000           30.00    
   1667      1     19     71       1.000           30.00    
   1668      1     19     72       1.000           30.00    
   1669      1     19     73       1.000           30.00    
   1670      1     19     74       1.000           30.00    
   1671      1     19     75       1.000           30.00    
   1672      1     19     76       1.000           30.00    
   1673      1     19     77       1.000           30.00    
   1674      1     19     78       1.000           30.00    
   1675      1     19     79       1.000           30.00    
   1676      1     19     80       1.000           30.00    
   1677      1     19     81       1.000           30.00    
   1678      1     19     82       1.000           30.00    
   1679      1     19     83       1.000           30.00    
   1680      1     19     84       1.000           30.00    
   1681      1     19     85       1.000           30.00    
   1682      1     19     86       1.000           30.00    
   1683      1     19     87       1.000           30.00    
   1684      1     19     88       1.000           30.00    
   1685      1     19     89       1.000           30.00    
   1686      1     19     90       1.000           30.00    
   1687      1     19     91       1.000           30.00    
   1688      1     19     92       1.000           30.00    
   1689      1     19     93       1.000           30.00    
   1690      1     19     94       1.000           30.00    
   1691      1     19     95       1.000           30.00    
   1692      1     19     96       1.000           30.00    
   1693      1     19     97       1.000           30.00    
   1694      1     19     98       1.000           30.00    
   1695      1     19     99       1.000           30.00    
   1696      1     19    162       1.000           30.00    
   1697      1     19    171       1.000           30.00    
   1698      1     19    172       1.000           30.00    
   1699      1     19    173       1.000           30.00    
   1700      1     19    174       1.000           30.00    
   1701      1     19    190       1.000           30.00    
   1702      1     19    191       1.000           30.00    
   1703      1     19    192       1.000           30.00    
   1704      1     19    193       1.000           30.00    
   1705      1     19    194       1.000           30.00    
   1706      1     19    195       1.000           30.00    
   1707      1     19    196       1.000           30.00    
   1708      1     19    197       1.000           30.00    
   1709      1     19    198       1.000           30.00    
   1710      1     19    199       1.000           30.00    
   1711      1     20     56       1.000           30.00    
   1712      1     20     57       1.000           30.00    
   1713      1     20     58       1.000           30.00    
   1714      1     20     59       1.000           30.00    
   1715      1     20     60       1.000           30.00    
   1716      1     20     61       1.000           30.00    
   1717      1     20     62       1.000           30.00    
   1718      1     20     63       1.000           30.00    
   1719      1     20     64       1.000           30.00    
   1720      1     20     65       1.000           30.00    
   1721      1     20     66       1.000           30.00    
   1722      1     20     67       1.000           30.00    
   1723      1     20     68       1.000           30.00    
   1724      1     20     69       1.000           30.00    
   1725      1     20     70       1.000           30.00    
   1726      1     20     71       1.000           30.00    
   1727      1     20     72       1.000           30.00    
   1728      1     20     73       1.000           30.00    
   1729      1     20     74       1.000           30.00    
   1730      1     20     75       1.000           30.00    
   1731      1     20     76       1.000           30.00    
   1732      1     20     77       1.000           30.00    
   1733      1     20     78       1.000           30.00    
   1734      1     20     79       1.000           30.00    
   1735      1     20     80       1.000           30.00    
   1736      1     20     81       1.000           30.00    
   1737      1     20     82       1.000           30.00    
   1738      1     20     83       1.000           30.00    
   1739      1     20     84       1.000           30.00    
   1740      1     20     85       1.000           30.00    
   1741      1     20     86       1.000           30.00    
   1742      1     20     87       1.000           30.00    
   1743      1     20     88       1.000           30.00    
   1744      1     20     89       1.000           30.00    
   1745      1     20     90       1.000           30.00    
   1746      1     20     91       1.000           30.00    
   1747      1     20     92       1.000           30.00    
   1748      1     20     93       1.000           30.00    
   1749      1     20     94       1.000           30.00    
   1750      1     20     95       1.000           30.00    
   1751      1     20     96       1.000           30.00    
   1752      1     20     97       1.000           30.00    
   1753      1     20     98       1.000           30.00    
   1754      1     20     99       1.000           30.00    
   1755      1     20    172       1.000           30.00    
   1756      1     20    173       1.000           30.00    
   1757      1     20    174       1.000           30.00    
   1758      1     20    175       1.000           30.00    
   1759      1     20    190       1.000           30.00    
   1760      1     20    191       1.000           30.00    
   1761      1     20    192       1.000           30.00    
   1762      1     20    193       1.000           30.00    
   1763      1     20    194       1.000           30.00    
   1764      1     20    195       1.000           30.00    
   1765      1     20    196       1.000           30.00    
   1766      1     20    197       1.000           30.00    
   1767      1     20    198       1.000           30.00    
   1768      1     20    199       1.000           30.00    
   1769      1     21     53       1.000           30.00    
   1770      1     21     54       1.000           30.00    
   1771      1     21     55       1.000           30.00    
   1772      1     21     56       1.000           30.00    
   1773      1     21     57       1.000           30.00    
   1774      1     21     58       1.000           30.00    
   1775      1     21     59       1.000           30.00    
   1776      1     21     60       1.000           30.00    
   1777      1     21     61       1.000           30.00    
   1778      1     21     62       1.000           30.00    
   1779      1     21     63       1.000           30.00    
   1780      1     21     64       1.000           30.00    
   1781      1     21     65       1.000           30.00    
   1782      1     21     66       1.000           30.00    
   1783      1     21     67       1.000           30.00    
   1784      1     21     68       1.000           30.00    
   1785      1     21     69       1.000           30.00    
   1786      1     21     70       1.000           30.00    
   1787      1     21     71       1.000           30.00    
   1788      1     21     72       1.000           30.00    
   1789      1     21     73       1.000           30.00    
   1790      1     21     74       1.000           30.00    
   1791      1     21     75       1.000           30.00    
   1792      1     21     76       1.000           30.00    
   1793      1     21     77       1.000           30.00    
   1794      1     21     78       1.000           30.00    
   1795      1     21     79       1.000           30.00    
   1796      1     21     80       1.000           30.00    
   1797      1     21     81       1.000           30.00    
   1798      1     21     82       1.000           30.00    
   1799      1     21     83       1.000           30.00    
   1800      1     21     84       1.000           30.00    
   1801      1     21     85       1.000           30.00    
   1802      1     21     86       1.000           30.00    
   1803      1     21     87       1.000           30.00    
   1804      1     21     88       1.000           30.00    
   1805      1     21     89       1.000           30.00    
   1806      1     21     90       1.000           30.00    
   1807      1     21     91       1.000           30.00    
   1808      1     21     92       1.000           30.00    
   1809      1     21     93       1.000           30.00    
   1810      1     21     97       1.000           30.00    
   1811      1     21     98       1.000           30.00    
   1812      1     21     99       1.000           30.00    
   1813      1     21    172       1.000           30.00    
   1814      1     21    173       1.000           30.00    
   1815      1     21    190       1.000           30.00    
   1816      1     21    191       1.000           30.00    
   1817      1     21    192       1.000           30.00    
   1818      1     21    193       1.000           30.00    
   1819      1     21    194       1.000           30.00    
   1820      1     21    195       1.000           30.00    
   1821      1     21    196       1.000           30.00    
   1822      1     21    197       1.000           30.00    
   1823      1     21    198       1.000           30.00    
   1824      1     21    199       1.000           30.00    
   1825      1     22     51       1.000           30.00    
   1826      1     22     52       1.000           30.00    
   1827      1     22     53       1.000           30.00    
   1828      1     22     54       1.000           30.00    
   1829      1     22     55       1.000           30.00    
   1830      1     22     56       1.000           30.00    
   1831      1     22     57       1.000           30.00    
   1832      1     22     58       1.000           30.00    
   1833      1     22     59       1.000           30.00    
   1834      1     22     60       1.000           30.00    
   1835      1     22     61       1.000           30.00    
   1836      1     22     62       1.000           30.00    
   1837      1     22     63       1.000           30.00    
   1838      1     22     64       1.000           30.00    
   1839      1     22     65       1.000           30.00    
   1840      1     22     66       1.000           30.00    
   1841      1     22     67       1.000           30.00    
   1842      1     22     68       1.000           30.00    
   1843      1     22     69       1.000           30.00    
   1844      1     22     70       1.000           30.00    
   1845      1     22     71       1.000           30.00    
   1846      1     22     72       1.000           30.00    
   1847      1     22     73       1.000           30.00    
   1848      1     22     74       1.000           30.00    
   1849      1     22     75       1.000           30.00    
   1850      1     22     76       1.000           30.00    
   1851      1     22     77       1.000           30.00    
   1852      1     22     78       1.000           30.00    
   1853      1     22     79       1.000           30.00    
   1854      1     22     80       1.000           30.00    
   1855      1     22     81       1.000           30.00    
   1856      1     22     82       1.000           30.00    
   1857      1     22     83       1.000           30.00    
   1858      1     22     84       1.000           30.00    
   1859      1     22     85       1.000           30.00    
   1860      1     22     86       1.000           30.00    
   1861      1     22     87       1.000           30.00    
   1862      1     22     88       1.000           30.00    
   1863      1     22     89       1.000           30.00    
   1864      1     22     90       1.000           30.00    
   1865      1     22     91       1.000           30.00    
   1866      1     22     92       1.000           30.00    
   1867      1     22     93       1.000           30.00    
   1868      1     22    189       1.000           30.00    
   1869      1     22    190       1.000           30.00    
   1870      1     22    191       1.000           30.00    
   1871      1     22    192       1.000           30.00    
   1872      1     22    193       1.000           30.00    
   1873      1     22    194       1.000           30.00    
   1874      1     22    195       1.000           30.00    
   1875      1     22    196       1.000           30.00    
   1876      1     22    197       1.000           30.00    
   1877      1     22    198       1.000           30.00    
   1878      1     22    199       1.000           30.00    
   1879      1     23     49       1.000           30.00    
   1880      1     23     50       1.000           30.00    
   1881      1     23     51       1.000           30.00    
   1882      1     23     52       1.000           30.00    
   1883      1     23     53       1.000           30.00    
   1884      1     23     54       1.000           30.00    
   1885      1     23     55       1.000           30.00    
   1886      1     23     56       1.000           30.00    
   1887      1     23     57       1.000           30.00    
   1888      1     23     58       1.000           30.00    
   1889      1     23     59       1.000           30.00    
   1890      1     23     60       1.000           30.00    
   1891      1     23     61       1.000           30.00    
   1892      1     23     62       1.000           30.00    
   1893      1     23     63       1.000           30.00    
   1894      1     23     64       1.000           30.00    
   1895      1     23     65       1.000           30.00    
   1896      1     23     66       1.000           30.00    
   1897      1     23     67       1.000           30.00    
   1898      1     23     68       1.000           30.00    
   1899      1     23     69       1.000           30.00    
   1900      1     23     70       1.000           30.00    
   1901      1     23     71       1.000           30.00    
   1902      1     23     72       1.000           30.00    
   1903      1     23     73       1.000           30.00    
   1904      1     23     74       1.000           30.00    
   1905      1     23     75       1.000           30.00    
   1906      1     23     76       1.000           30.00    
   1907      1     23     77       1.000           30.00    
   1908      1     23     78       1.000           30.00    
   1909      1     23     79       1.000           30.00    
   1910      1     23     80       1.000           30.00    
   1911      1     23     81       1.000           30.00    
   1912      1     23     82       1.000           30.00    
   1913      1     23     83       1.000           30.00    
   1914      1     23     84       1.000           30.00    
   1915      1     23     85       1.000           30.00    
   1916      1     23     86       1.000           30.00    
   1917      1     23     87       1.000           30.00    
   1918      1     23     88       1.000           30.00    
   1919      1     23     89       1.000           30.00    
   1920      1     23     90       1.000           30.00    
   1921      1     23     91       1.000           30.00    
   1922      1     23     92       1.000           30.00    
   1923      1     23     93       1.000           30.00    
   1924      1     23    189       1.000           30.00    
   1925      1     23    190       1.000           30.00    
   1926      1     23    191       1.000           30.00    
   1927      1     23    192       1.000           30.00    
   1928      1     23    193       1.000           30.00    
   1929      1     23    194       1.000           30.00    
   1930      1     23    195       1.000           30.00    
   1931      1     23    196       1.000           30.00    
   1932      1     23    197       1.000           30.00    
   1933      1     23    198       1.000           30.00    
   1934      1     23    199       1.000           30.00    
   1935      1     24     47       1.000           30.00    
   1936      1     24     48       1.000           30.00    
   1937      1     24     49       1.000           30.00    
   1938      1     24     50       1.000           30.00    
   1939      1     24     51       1.000           30.00    
   1940      1     24     52       1.000           30.00    
   1941      1     24     53       1.000           30.00    
   1942      1     24     54       1.000           30.00    
   1943      1     24     55       1.000           30.00    
   1944      1     24     56       1.000           30.00    
   1945      1     24     57       1.000           30.00    
   1946      1     24     58       1.000           30.00    
   1947      1     24     59       1.000           30.00    
   1948      1     24     60       1.000           30.00    
   1949      1     24     61       1.000           30.00    
   1950      1     24     62       1.000           30.00    
   1951      1     24     63       1.000           30.00    
   1952      1     24     64       1.000           30.00    
   1953      1     24     65       1.000           30.00    
   1954      1     24     66       1.000           30.00    
   1955      1     24     67       1.000           30.00    
   1956      1     24     68       1.000           30.00    
   1957      1     24     69       1.000           30.00    
   1958      1     24     70       1.000           30.00    
   1959      1     24     71       1.000           30.00    
   1960      1     24     72       1.000           30.00    
   1961      1     24     73       1.000           30.00    
   1962      1     24     74       1.000           30.00    
   1963      1     24     75       1.000           30.00    
   1964      1     24     76       1.000           30.00    
   1965      1     24     77       1.000           30.00    
   1966      1     24     78       1.000           30.00    
   1967      1     24     79       1.000           30.00    
   1968      1     24     80       1.000           30.00    
   1969      1     24     81       1.000           30.00    
   1970      1     24     82       1.000           30.00    
   1971      1     24     83       1.000           30.00    
   1972      1     24     84       1.000           30.00    
   1973      1     24     85       1.000           30.00    
   1974      1     24     86       1.000           30.00    
   1975      1     24     87       1.000           30.00    
   1976      1     24     88       1.000           30.00    
   1977      1     24     89       1.000           30.00    
   1978      1     24     90       1.000           30.00    
   1979      1     24     91       1.000           30.00    
   1980      1     24     92       1.000           30.00    
   1981      1     24     93       1.000           30.00    
   1982      1     24    189       1.000           30.00    
   1983      1     24    190       1.000           30.00    
   1984      1     24    191       1.000           30.00    
   1985      1     24    192       1.000           30.00    
   1986      1     24    193       1.000           30.00    
   1987      1     24    194       1.000           30.00    
   1988      1     24    195       1.000           30.00    
   1989      1     24    196       1.000           30.00    
   1990      1     24    197       1.000           30.00    
   1991      1     24    198       1.000           30.00    
   1992      1     24    199       1.000           30.00    
   1993      1     25     45       1.000           30.00    
   1994      1     25     46       1.000           30.00    
   1995      1     25     47       1.000           30.00    
   1996      1     25     48       1.000           30.00    
   1997      1     25     49       1.000           30.00    
   1998      1     25     50       1.000           30.00    
   1999      1     25     51       1.000           30.00    
   2000      1     25     52       1.000           30.00    
   2001      1     25     53       1.000           30.00    
   2002      1     25     54       1.000           30.00    
   2003      1     25     55       1.000           30.00    
   2004      1     25     56       1.000           30.00    
   2005      1     25     57       1.000           30.00    
   2006      1     25     58       1.000           30.00    
   2007      1     25     59       1.000           30.00    
   2008      1     25     60       1.000           30.00    
   2009      1     25     61       1.000           30.00    
   2010      1     25     62       1.000           30.00    
   2011      1     25     63       1.000           30.00    
   2012      1     25     64       1.000           30.00    
   2013      1     25     65       1.000           30.00    
   2014      1     25     66       1.000           30.00    
   2015      1     25     67       1.000           30.00    
   2016      1     25     68       1.000           30.00    
   2017      1     25     69       1.000           30.00    
   2018      1     25     70       1.000           30.00    
   2019      1     25     71       1.000           30.00    
   2020      1     25     72       1.000           30.00    
   2021      1     25     73       1.000           30.00    
   2022      1     25     74       1.000           30.00    
   2023      1     25     75       1.000           30.00    
   2024      1     25     76       1.000           30.00    
   2025      1     25     77       1.000           30.00    
   2026      1     25     78       1.000           30.00    
   2027      1     25     79       1.000           30.00    
   2028      1     25     80       1.000           30.00    
   2029      1     25     81       1.000           30.00    
   2030      1     25     82       1.000           30.00    
   2031      1     25     83       1.000           30.00    
   2032      1     25     84       1.000           30.00    
   2033      1     25     85       1.000           30.00    
   2034      1     25     86       1.000           30.00    
   2035      1     25     87       1.000           30.00    
   2036      1     25     88       1.000           30.00    
   2037      1     25     89       1.000           30.00    
   2038      1     25     90       1.000           30.00    
   2039      1     25     91       1.000           30.00    
   2040      1     25    189       1.000           30.00    
   2041      1     25    190       1.000           30.00    
   2042      1     25    191       1.000           30.00    
   2043      1     25    192       1.000           30.00    
   2044      1     25    193       1.000           30.00    
   2045      1     25    194       1.000           30.00    
   2046      1     25    195       1.000           30.00    
   2047      1     25    196       1.000           30.00    
   2048      1     25    197       1.000           30.00    
   2049      1     25    198       1.000           30.00    
   2050      1     25    199       1.000           30.00    
   2051      1     26     43       1.000           30.00    
   2052      1     26     44       1.000           30.00    
   2053      1     26     45       1.000           30.00    
   2054      1     26     46       1.000           30.00    
   2055      1     26     47       1.000           30.00    
   2056      1     26     48       1.000           30.00    
   2057      1     26     49       1.000           30.00    
   2058      1     26     50       1.000           30.00    
   2059      1     26     51       1.000           30.00    
   2060      1     26     52       1.000           30.00    
   2061      1     26     53       1.000           30.00    
   2062      1     26     54       1.000           30.00    
   2063      1     26     55       1.000           30.00    
   2064      1     26     56       1.000           30.00    
   2065      1     26     57       1.000           30.00    
   2066      1     26     58       1.000           30.00    
   2067      1     26     59       1.000           30.00    
   2068      1     26     60       1.000           30.00    
   2069      1     26     61       1.000           30.00    
   2070      1     26     62       1.000           30.00    
   2071      1     26     63       1.000           30.00    
   2072      1     26     64       1.000           30.00    
   2073      1     26     65       1.000           30.00    
   2074      1     26     66       1.000           30.00    
   2075      1     26     67       1.000           30.00    
   2076      1     26     68       1.000           30.00    
   2077      1     26     69       1.000           30.00    
   2078      1     26     70       1.000           30.00    
   2079      1     26     71       1.000           30.00    
   2080      1     26     72       1.000           30.00    
   2081      1     26     73       1.000           30.00    
   2082      1     26     74       1.000           30.00    
   2083      1     26     75       1.000           30.00    
   2084      1     26     76       1.000           30.00    
   2085      1     26     77       1.000           30.00    
   2086      1     26     78       1.000           30.00    
   2087      1     26     79       1.000           30.00    
   2088      1     26     80       1.000           30.00    
   2089      1     26     81       1.000           30.00    
   2090      1     26     82       1.000           30.00    
   2091      1     26     83       1.000           30.00    
   2092      1     26     84       1.000           30.00    
   2093      1     26     85       1.000           30.00    
   2094      1     26     86       1.000           30.00    
   2095      1     26     87       1.000           30.00    
   2096      1     26     88       1.000           30.00    
   2097      1     26     89       1.000           30.00    
   2098      1     26     90       1.000           30.00    
   2099      1     26    113       1.000           30.00    
   2100      1     26    114       1.000           30.00    
   2101      1     26    115       1.000           30.00    
   2102      1     26    116       1.000           30.00    
   2103      1     26    117       1.000           30.00    
   2104      1     26    118       1.000           30.00    
   2105      1     26    156       1.000           30.00    
   2106      1     26    157       1.000           30.00    
   2107      1     26    158       1.000           30.00    
   2108      1     26    188       1.000           30.00    
   2109      1     26    189       1.000           30.00    
   2110      1     26    190       1.000           30.00    
   2111      1     26    191       1.000           30.00    
   2112      1     26    192       1.000           30.00    
   2113      1     26    193       1.000           30.00    
   2114      1     26    194       1.000           30.00    
   2115      1     26    195       1.000           30.00    
   2116      1     26    196       1.000           30.00    
   2117      1     26    197       1.000           30.00    
   2118      1     26    198       1.000           30.00    
   2119      1     26    199       1.000           30.00    
   2120      1     27     20       1.000           30.00    
   2121      1     27     21       1.000           30.00    
   2122      1     27     22       1.000           30.00    
   2123      1     27     23       1.000           30.00    
   2124      1     27     24       1.000           30.00    
   2125      1     27     25       1.000           30.00    
   2126      1     27     26       1.000           30.00    
   2127      1     27     41       1.000           30.00    
   2128      1     27     42       1.000           30.00    
   2129      1     27     43       1.000           30.00    
   2130      1     27     44       1.000           30.00    
   2131      1     27     45       1.000           30.00    
   2132      1     27     46       1.000           30.00    
   2133      1     27     47       1.000           30.00    
   2134      1     27     48       1.000           30.00    
   2135      1     27     49       1.000           30.00    
   2136      1     27     50       1.000           30.00    
   2137      1     27     51       1.000           30.00    
   2138      1     27     52       1.000           30.00    
   2139      1     27     53       1.000           30.00    
   2140      1     27     54       1.000           30.00    
   2141      1     27     55       1.000           30.00    
   2142      1     27     56       1.000           30.00    
   2143      1     27     57       1.000           30.00    
   2144      1     27     58       1.000           30.00    
   2145      1     27     59       1.000           30.00    
   2146      1     27     60       1.000           30.00    
   2147      1     27     61       1.000           30.00    
   2148      1     27     62       1.000           30.00    
   2149      1     27     63       1.000           30.00    
   2150      1     27     64       1.000           30.00    
   2151      1     27     65       1.000           30.00    
   2152      1     27     66       1.000           30.00    
   2153      1     27     67       1.000           30.00    
   2154      1     27     68       1.000           30.00    
   2155      1     27     69       1.000           30.00    
   2156      1     27     70       1.000           30.00    
   2157      1     27     71       1.000           30.00    
   2158      1     27     72       1.000           30.00    
   2159      1     27     73       1.000           30.00    
   2160      1     27     74       1.000           30.00    
   2161      1     27     75       1.000           30.00    
   2162      1     27     76       1.000           30.00    
   2163      1     27     77       1.000           30.00    
   2164      1     27     78       1.000           30.00    
   2165      1     27     79       1.000           30.00    
   2166      1     27     80       1.000           30.00    
   2167      1     27     81       1.000           30.00    
   2168      1     27     82       1.000           30.00    
   2169      1     27     83       1.000           30.00    
   2170      1     27     84       1.000           30.00    
   2171      1     27     85       1.000           30.00    
   2172      1     27     86       1.000           30.00    
   2173      1     27     87       1.000           30.00    
   2174      1     27     88       1.000           30.00    
   2175      1     27     89       1.000           30.00    
   2176      1     27    112       1.000           30.00    
   2177      1     27    113       1.000           30.00    
   2178      1     27    114       1.000           30.00    
   2179      1     27    115       1.000           30.00    
   2180      1     27    116       1.000           30.00    
   2181      1     27    117       1.000           30.00    
   2182      1     27    118       1.000           30.00    
   2183      1     27    119       1.000           30.00    
   2184      1     27    120       1.000           30.00    
   2185      1     27    121       1.000           30.00    
   2186      1     27    122       1.000           30.00    
   2187      1     27    123       1.000           30.00    
   2188      1     27    155       1.000           30.00    
   2189      1     27    156       1.000           30.00    
   2190      1     27    157       1.000           30.00    
   2191      1     27    158       1.000           30.00    
   2192      1     27    159       1.000           30.00    
   2193      1     27    160       1.000           30.00    
   2194      1     27    161       1.000           30.00    
   2195      1     27    188       1.000           30.00    
   2196      1     27    189       1.000           30.00    
   2197      1     27    190       1.000           30.00    
   2198      1     27    191       1.000           30.00    
   2199      1     27    192       1.000           30.00    
   2200      1     27    193       1.000           30.00    
   2201      1     27    194       1.000           30.00    
   2202      1     27    195       1.000           30.00    
   2203      1     27    196       1.000           30.00    
   2204      1     27    197       1.000           30.00    
   2205      1     27    198       1.000           30.00    
   2206      1     27    199       1.000           30.00    
   2207      1     28     15       1.000           30.00    
   2208      1     28     16       1.000           30.00    
   2209      1     28     17       1.000           30.00    
   2210      1     28     18       1.000           30.00    
   2211      1     28     19       1.000           30.00    
   2212      1     28     20       1.000           30.00    
   2213      1     28     21       1.000           30.00    
   2214      1     28     22       1.000           30.00    
   2215      1     28     23       1.000           30.00    
   2216      1     28     24       1.000           30.00    
   2217      1     28     25       1.000           30.00    
   2218      1     28     26       1.000           30.00    
   2219      1     28     27       1.000           30.00    
   2220      1     28     28       1.000           30.00    
   2221      1     28     29       1.000           30.00    
   2222      1     28     30       1.000           30.00    
   2223      1     28     31       1.000           30.00    
   2224      1     28     32       1.000           30.00    
   2225      1     28     33       1.000           30.00    
   2226      1     28     39       1.000           30.00    
   2227      1     28     40       1.000           30.00    
   2228      1     28     41       1.000           30.00    
   2229      1     28     42       1.000           30.00    
   2230      1     28     43       1.000           30.00    
   2231      1     28     44       1.000           30.00    
   2232      1     28     45       1.000           30.00    
   2233      1     28     46       1.000           30.00    
   2234      1     28     47       1.000           30.00    
   2235      1     28     48       1.000           30.00    
   2236      1     28     49       1.000           30.00    
   2237      1     28     50       1.000           30.00    
   2238      1     28     51       1.000           30.00    
   2239      1     28     52       1.000           30.00    
   2240      1     28     53       1.000           30.00    
   2241      1     28     54       1.000           30.00    
   2242      1     28     55       1.000           30.00    
   2243      1     28     56       1.000           30.00    
   2244      1     28     57       1.000           30.00    
   2245      1     28     58       1.000           30.00    
   2246      1     28     59       1.000           30.00    
   2247      1     28     60       1.000           30.00    
   2248      1     28     61       1.000           30.00    
   2249      1     28     62       1.000           30.00    
   2250      1     28     63       1.000           30.00    
   2251      1     28     64       1.000           30.00    
   2252      1     28     65       1.000           30.00    
   2253      1     28     66       1.000           30.00    
   2254      1     28     67       1.000           30.00    
   2255      1     28     68       1.000           30.00    
   2256      1     28     69       1.000           30.00    
   2257      1     28     70       1.000           30.00    
   2258      1     28     71       1.000           30.00    
   2259      1     28     72       1.000           30.00    
   2260      1     28     73       1.000           30.00    
   2261      1     28     74       1.000           30.00    
   2262      1     28     75       1.000           30.00    
   2263      1     28     76       1.000           30.00    
   2264      1     28     77       1.000           30.00    
   2265      1     28     78       1.000           30.00    
   2266      1     28     79       1.000           30.00    
   2267      1     28     80       1.000           30.00    
   2268      1     28     81       1.000           30.00    
   2269      1     28     82       1.000           30.00    
   2270      1     28     83       1.000           30.00    
   2271      1     28     84       1.000           30.00    
   2272      1     28     85       1.000           30.00    
   2273      1     28     86       1.000           30.00    
   2274      1     28     87       1.000           30.00    
   2275      1     28     88       1.000           30.00    
   2276      1     28    103       1.000           30.00    
   2277      1     28    104       1.000           30.00    
   2278      1     28    105       1.000           30.00    
   2279      1     28    106       1.000           30.00    
   2280      1     28    107       1.000           30.00    
   2281      1     28    108       1.000           30.00    
   2282      1     28    109       1.000           30.00    
   2283      1     28    110       1.000           30.00    
   2284      1     28    111       1.000           30.00    
   2285      1     28    112       1.000           30.00    
   2286      1     28    113       1.000           30.00    
   2287      1     28    114       1.000           30.00    
   2288      1     28    115       1.000           30.00    
   2289      1     28    116       1.000           30.00    
   2290      1     28    117       1.000           30.00    
   2291      1     28    118       1.000           30.00    
   2292      1     28    119       1.000           30.00    
   2293      1     28    120       1.000           30.00    
   2294      1     28    121       1.000           30.00    
   2295      1     28    122       1.000           30.00    
   2296      1     28    123       1.000           30.00    
   2297      1     28    124       1.000           30.00    
   2298      1     28    151       1.000           30.00    
   2299      1     28    152       1.000           30.00    
   2300      1     28    153       1.000           30.00    
   2301      1     28    154       1.000           30.00    
   2302      1     28    155       1.000           30.00    
   2303      1     28    156       1.000           30.00    
   2304      1     28    157       1.000           30.00    
   2305      1     28    158       1.000           30.00    
   2306      1     28    159       1.000           30.00    
   2307      1     28    160       1.000           30.00    
   2308      1     28    161       1.000           30.00    
   2309      1     28    182       1.000           30.00    
   2310      1     28    183       1.000           30.00    
   2311      1     28    184       1.000           30.00    
   2312      1     28    185       1.000           30.00    
   2313      1     28    186       1.000           30.00    
   2314      1     28    187       1.000           30.00    
   2315      1     28    188       1.000           30.00    
   2316      1     28    189       1.000           30.00    
   2317      1     28    190       1.000           30.00    
   2318      1     28    191       1.000           30.00    
   2319      1     28    192       1.000           30.00    
   2320      1     28    193       1.000           30.00    
   2321      1     28    194       1.000           30.00    
   2322      1     28    195       1.000           30.00    
   2323      1     28    196       1.000           30.00    
   2324      1     28    197       1.000           30.00    
   2325      1     28    198       1.000           30.00    
   2326      1     28    199       1.000           30.00    
   2327      1     29      2       1.000           30.00    
   2328      1     29      3       1.000           30.00    
   2329      1     29      4       1.000           30.00    
   2330      1     29     10       1.000           30.00    
   2331      1     29     11       1.000           30.00    
   2332      1     29     12       1.000           30.00    
   2333      1     29     13       1.000           30.00    
   2334      1     29     14       1.000           30.00    
   2335      1     29     15       1.000           30.00    
   2336      1     29     16       1.000           30.00    
   2337      1     29     17       1.000           30.00    
   2338      1     29     18       1.000           30.00    
   2339      1     29     19       1.000           30.00    
   2340      1     29     20       1.000           30.00    
   2341      1     29     21       1.000           30.00    
   2342      1     29     22       1.000           30.00    
   2343      1     29     23       1.000           30.00    
   2344      1     29     24       1.000           30.00    
   2345      1     29     25       1.000           30.00    
   2346      1     29     26       1.000           30.00    
   2347      1     29     27       1.000           30.00    
   2348      1     29     28       1.000           30.00    
   2349      1     29     29       1.000           30.00    
   2350      1     29     30       1.000           30.00    
   2351      1     29     31       1.000           30.00    
   2352      1     29     32       1.000           30.00    
   2353      1     29     33       1.000           30.00    
   2354      1     29     34       1.000           30.00    
   2355      1     29     35       1.000           30.00    
   2356      1     29     36       1.000           30.00    
   2357      1     29     37       1.000           30.00    
   2358      1     29     38       1.000           30.00    
   2359      1     29     39       1.000           30.00    
   2360      1     29     40       1.000           30.00    
   2361      1     29     41       1.000           30.00    
   2362      1     29     42       1.000           30.00    
   2363      1     29     43       1.000           30.00    
   2364      1     29     44       1.000           30.00    
   2365      1     29     45       1.000           30.00    
   2366      1     29     46       1.000           30.00    
   2367      1     29     47       1.000           30.00    
   2368      1     29     48       1.000           30.00    
   2369      1     29     49       1.000           30.00    
   2370      1     29     50       1.000           30.00    
   2371      1     29     51       1.000           30.00    
   2372      1     29     52       1.000           30.00    
   2373      1     29     53       1.000           30.00    
   2374      1     29     54       1.000           30.00    
   2375      1     29     55       1.000           30.00    
   2376      1     29     56       1.000           30.00    
   2377      1     29     57       1.000           30.00    
   2378      1     29     58       1.000           30.00    
   2379      1     29     59       1.000           30.00    
   2380      1     29     60       1.000           30.00    
   2381      1     29     61       1.000           30.00    
   2382      1     29     62       1.000           30.00    
   2383      1     29     63       1.000           30.00    
   2384      1     29     64       1.000           30.00    
   2385      1     29     65       1.000           30.00    
   2386      1     29     66       1.000           30.00    
   2387      1     29     67       1.000           30.00    
   2388      1     29     68       1.000           30.00    
   2389      1     29     69       1.000           30.00    
   2390      1     29     70       1.000           30.00    
   2391      1     29     71       1.000           30.00    
   2392      1     29     72       1.000           30.00    
   2393      1     29     73       1.000           30.00    
   2394      1     29     74       1.000           30.00    
   2395      1     29     75       1.000           30.00    
   2396      1     29     76       1.000           30.00    
   2397      1     29     77       1.000           30.00    
   2398      1     29     78       1.000           30.00    
   2399      1     29     79       1.000           30.00    
   2400      1     29     80       1.000           30.00    
   2401      1     29     81       1.000           30.00    
   2402      1     29     82       1.000           30.00    
   2403      1     29     83       1.000           30.00    
   2404      1     29     84       1.000           30.00    
   2405      1     29     85       1.000           30.00    
   2406      1     29     86       1.000           30.00    
   2407      1     29     87       1.000           30.00    
   2408      1     29    103       1.000           30.00    
   2409      1     29    104       1.000           30.00    
   2410      1     29    105       1.000           30.00    
   2411      1     29    106       1.000           30.00    
   2412      1     29    107       1.000           30.00    
   2413      1     29    108       1.000           30.00    
   2414      1     29    109       1.000           30.00    
   2415      1     29    110       1.000           30.00    
   2416      1     29    111       1.000           30.00    
   2417      1     29    112       1.000           30.00    
   2418      1     29    113       1.000           30.00    
   2419      1     29    114       1.000           30.00    
   2420      1     29    115       1.000           30.00    
   2421      1     29    116       1.000           30.00    
   2422      1     29    117       1.000           30.00    
   2423      1     29    118       1.000           30.00    
   2424      1     29    119       1.000           30.00    
   2425      1     29    120       1.000           30.00    
   2426      1     29    121       1.000           30.00    
   2427      1     29    122       1.000           30.00    
   2428      1     29    123       1.000           30.00    
   2429      1     29    124       1.000           30.00    
   2430      1     29    151       1.000           30.00    
   2431      1     29    152       1.000           30.00    
   2432      1     29    153       1.000           30.00    
   2433      1     29    154       1.000           30.00    
   2434      1     29    155       1.000           30.00    
   2435      1     29    156       1.000           30.00    
   2436      1     29    157       1.000           30.00    
   2437      1     29    158       1.000           30.00    
   2438      1     29    159       1.000           30.00    
   2439      1     29    160       1.000           30.00    
   2440      1     29    161       1.000           30.00    
   2441      1     29    162       1.000           30.00    
   2442      1     29    176       1.000           30.00    
   2443      1     29    177       1.000           30.00    
   2444      1     29    181       1.000           30.00    
   2445      1     29    182       1.000           30.00    
   2446      1     29    183       1.000           30.00    
   2447      1     29    184       1.000           30.00    
   2448      1     29    185       1.000           30.00    
   2449      1     29    186       1.000           30.00    
   2450      1     29    187       1.000           30.00    
   2451      1     29    188       1.000           30.00    
   2452      1     29    189       1.000           30.00    
   2453      1     29    190       1.000           30.00    
   2454      1     29    191       1.000           30.00    
   2455      1     29    192       1.000           30.00    
   2456      1     29    193       1.000           30.00    
   2457      1     29    194       1.000           30.00    
   2458      1     29    195       1.000           30.00    
   2459      1     29    196       1.000           30.00    
   2460      1     29    197       1.000           30.00    
   2461      1     29    198       1.000           30.00    
   2462      1     29    199       1.000           30.00    
   2463      1     30      2       1.000           30.00    
   2464      1     30      3       1.000           30.00    
   2465      1     30      4       1.000           30.00    
   2466      1     30      5       1.000           30.00    
   2467      1     30      6       1.000           30.00    
   2468      1     30      7       1.000           30.00    
   2469      1     30      8       1.000           30.00    
   2470      1     30      9       1.000           30.00    
   2471      1     30     10       1.000           30.00    
   2472      1     30     11       1.000           30.00    
   2473      1     30     12       1.000           30.00    
   2474      1     30     13       1.000           30.00    
   2475      1     30     14       1.000           30.00    
   2476      1     30     15       1.000           30.00    
   2477      1     30     16       1.000           30.00    
   2478      1     30     17       1.000           30.00    
   2479      1     30     18       1.000           30.00    
   2480      1     30     19       1.000           30.00    
   2481      1     30     20       1.000           30.00    
   2482      1     30     21       1.000           30.00    
   2483      1     30     22       1.000           30.00    
   2484      1     30     23       1.000           30.00    
   2485      1     30     24       1.000           30.00    
   2486      1     30     25       1.000           30.00    
   2487      1     30     26       1.000           30.00    
   2488      1     30     27       1.000           30.00    
   2489      1     30     28       1.000           30.00    
   2490      1     30     29       1.000           30.00    
   2491      1     30     30       1.000           30.00    
   2492      1     30     31       1.000           30.00    
   2493      1     30     32       1.000           30.00    
   2494      1     30     33       1.000           30.00    
   2495      1     30     34       1.000           30.00    
   2496      1     30     35       1.000           30.00    
   2497      1     30     36       1.000           30.00    
   2498      1     30     37       1.000           30.00    
   2499      1     30     38       1.000           30.00    
   2500      1     30     39       1.000           30.00    
   2501      1     30     40       1.000           30.00    
   2502      1     30     41       1.000           30.00    
   2503      1     30     42       1.000           30.00    
   2504      1     30     43       1.000           30.00    
   2505      1     30     44       1.000           30.00    
   2506      1     30     45       1.000           30.00    
   2507      1     30     46       1.000           30.00    
   2508      1     30     47       1.000           30.00    
   2509      1     30     48       1.000           30.00    
   2510      1     30     49       1.000           30.00    
   2511      1     30     50       1.000           30.00    
   2512      1     30     51       1.000           30.00    
   2513      1     30     52       1.000           30.00    
   2514      1     30     53       1.000           30.00    
   2515      1     30     54       1.000           30.00    
   2516      1     30     55       1.000           30.00    
   2517      1     30     56       1.000           30.00    
   2518      1     30     57       1.000           30.00    
   2519      1     30     58       1.000           30.00    
   2520      1     30     59       1.000           30.00    
   2521      1     30     60       1.000           30.00    
   2522      1     30     61       1.000           30.00    
   2523      1     30     62       1.000           30.00    
   2524      1     30     63       1.000           30.00    
   2525      1     30     64       1.000           30.00    
   2526      1     30     65       1.000           30.00    
   2527      1     30     66       1.000           30.00    
   2528      1     30     67       1.000           30.00    
   2529      1     30     68       1.000           30.00    
   2530      1     30     69       1.000           30.00    
   2531      1     30     70       1.000           30.00    
   2532      1     30     71       1.000           30.00    
   2533      1     30     72       1.000           30.00    
   2534      1     30     73       1.000           30.00    
   2535      1     30     74       1.000           30.00    
   2536      1     30     75       1.000           30.00    
   2537      1     30     76       1.000           30.00    
   2538      1     30     77       1.000           30.00    
   2539      1     30     78       1.000           30.00    
   2540      1     30     79       1.000           30.00    
   2541      1     30     80       1.000           30.00    
   2542      1     30     81       1.000           30.00    
   2543      1     30     82       1.000           30.00    
   2544      1     30     83       1.000           30.00    
   2545      1     30     84       1.000           30.00    
   2546      1     30     85       1.000           30.00    
   2547      1     30     86       1.000           30.00    
   2548      1     30     87       1.000           30.00    
   2549      1     30    107       1.000           30.00    
   2550      1     30    108       1.000           30.00    
   2551      1     30    109       1.000           30.00    
   2552      1     30    110       1.000           30.00    
   2553      1     30    111       1.000           30.00    
   2554      1     30    112       1.000           30.00    
   2555      1     30    113       1.000           30.00    
   2556      1     30    114       1.000           30.00    
   2557      1     30    115       1.000           30.00    
   2558      1     30    116       1.000           30.00    
   2559      1     30    117       1.000           30.00    
   2560      1     30    118       1.000           30.00    
   2561      1     30    119       1.000           30.00    
   2562      1     30    120       1.000           30.00    
   2563      1     30    121       1.000           30.00    
   2564      1     30    122       1.000           30.00    
   2565      1     30    123       1.000           30.00    
   2566      1     30    124       1.000           30.00    
   2567      1     30    150       1.000           30.00    
   2568      1     30    151       1.000           30.00    
   2569      1     30    152       1.000           30.00    
   2570      1     30    153       1.000           30.00    
   2571      1     30    154       1.000           30.00    
   2572      1     30    155       1.000           30.00    
   2573      1     30    156       1.000           30.00    
   2574      1     30    157       1.000           30.00    
   2575      1     30    158       1.000           30.00    
   2576      1     30    159       1.000           30.00    
   2577      1     30    160       1.000           30.00    
   2578      1     30    161       1.000           30.00    
   2579      1     30    162       1.000           30.00    
   2580      1     30    163       1.000           30.00    
   2581      1     30    175       1.000           30.00    
   2582      1     30    176       1.000           30.00    
   2583      1     30    177       1.000           30.00    
   2584      1     30    178       1.000           30.00    
   2585      1     30    179       1.000           30.00    
   2586      1     30    180       1.000           30.00    
   2587      1     30    181       1.000           30.00    
   2588      1     30    182       1.000           30.00    
   2589      1     30    183       1.000           30.00    
   2590      1     30    184       1.000           30.00    
   2591      1     30    185       1.000           30.00    
   2592      1     30    186       1.000           30.00    
   2593      1     30    187       1.000           30.00    
   2594      1     30    188       1.000           30.00    
   2595      1     30    189       1.000           30.00    
   2596      1     30    190       1.000           30.00    
   2597      1     30    191       1.000           30.00    
   2598      1     30    192       1.000           30.00    
   2599      1     30    193       1.000           30.00    
   2600      1     30    194       1.000           30.00    
   2601      1     30    195       1.000           30.00    
   2602      1     30    196       1.000           30.00    
   2603      1     30    197       1.000           30.00    
   2604      1     30    198       1.000           30.00    
   2605      1     30    199       1.000           30.00    
   2606      1     31      2       1.000           30.00    
   2607      1     31      3       1.000           30.00    
   2608      1     31      4       1.000           30.00    
   2609      1     31      5       1.000           30.00    
   2610      1     31      6       1.000           30.00    
   2611      1     31      7       1.000           30.00    
   2612      1     31      8       1.000           30.00    
   2613      1     31      9       1.000           30.00    
   2614      1     31     10       1.000           30.00    
   2615      1     31     11       1.000           30.00    
   2616      1     31     12       1.000           30.00    
   2617      1     31     13       1.000           30.00    
   2618      1     31     14       1.000           30.00    
   2619      1     31     15       1.000           30.00    
   2620      1     31     16       1.000           30.00    
   2621      1     31     17       1.000           30.00    
   2622      1     31     18       1.000           30.00    
   2623      1     31     19       1.000           30.00    
   2624      1     31     20       1.000           30.00    
   2625      1     31     21       1.000           30.00    
   2626      1     31     22       1.000           30.00    
   2627      1     31     23       1.000           30.00    
   2628      1     31     24       1.000           30.00    
   2629      1     31     25       1.000           30.00    
   2630      1     31     26       1.000           30.00    
   2631      1     31     27       1.000           30.00    
   2632      1     31     28       1.000           30.00    
   2633      1     31     29       1.000           30.00    
   2634      1     31     30       1.000           30.00    
   2635      1     31     31       1.000           30.00    
   2636      1     31     32       1.000           30.00    
   2637      1     31     33       1.000           30.00    
   2638      1     31     34       1.000           30.00    
   2639      1     31     35       1.000           30.00    
   2640      1     31     36       1.000           30.00    
   2641      1     31     37       1.000           30.00    
   2642      1     31     38       1.000           30.00    
   2643      1     31     39       1.000           30.00    
   2644      1     31     40       1.000           30.00    
   2645      1     31     41       1.000           30.00    
   2646      1     31     42       1.000           30.00    
   2647      1     31     43       1.000           30.00    
   2648      1     31     44       1.000           30.00    
   2649      1     31     45       1.000           30.00    
   2650      1     31     46       1.000           30.00    
   2651      1     31     47       1.000           30.00    
   2652      1     31     48       1.000           30.00    
   2653      1     31     49       1.000           30.00    
   2654      1     31     50       1.000           30.00    
   2655      1     31     51       1.000           30.00    
   2656      1     31     52       1.000           30.00    
   2657      1     31     53       1.000           30.00    
   2658      1     31     54       1.000           30.00    
   2659      1     31     55       1.000           30.00    
   2660      1     31     56       1.000           30.00    
   2661      1     31     57       1.000           30.00    
   2662      1     31     58       1.000           30.00    
   2663      1     31     59       1.000           30.00    
   2664      1     31     60       1.000           30.00    
   2665      1     31     61       1.000           30.00    
   2666      1     31     62       1.000           30.00    
   2667      1     31     63       1.000           30.00    
   2668      1     31     64       1.000           30.00    
   2669      1     31     65       1.000           30.00    
   2670      1     31     66       1.000           30.00    
   2671      1     31     67       1.000           30.00    
   2672      1     31     68       1.000           30.00    
   2673      1     31     69       1.000           30.00    
   2674      1     31     70       1.000           30.00    
   2675      1     31     71       1.000           30.00    
   2676      1     31     72       1.000           30.00    
   2677      1     31     73       1.000           30.00    
   2678      1     31     74       1.000           30.00    
   2679      1     31     75       1.000           30.00    
   2680      1     31     76       1.000           30.00    
   2681      1     31     77       1.000           30.00    
   2682      1     31     78       1.000           30.00    
   2683      1     31     79       1.000           30.00    
   2684      1     31     80       1.000           30.00    
   2685      1     31     81       1.000           30.00    
   2686      1     31     82       1.000           30.00    
   2687      1     31     83       1.000           30.00    
   2688      1     31     84       1.000           30.00    
   2689      1     31     85       1.000           30.00    
   2690      1     31     86       1.000           30.00    
   2691      1     31     87       1.000           30.00    
   2692      1     31    108       1.000           30.00    
   2693      1     31    109       1.000           30.00    
   2694      1     31    115       1.000           30.00    
   2695      1     31    116       1.000           30.00    
   2696      1     31    117       1.000           30.00    
   2697      1     31    118       1.000           30.00    
   2698      1     31    119       1.000           30.00    
   2699      1     31    120       1.000           30.00    
   2700      1     31    121       1.000           30.00    
   2701      1     31    122       1.000           30.00    
   2702      1     31    123       1.000           30.00    
   2703      1     31    149       1.000           30.00    
   2704      1     31    150       1.000           30.00    
   2705      1     31    151       1.000           30.00    
   2706      1     31    152       1.000           30.00    
   2707      1     31    153       1.000           30.00    
   2708      1     31    154       1.000           30.00    
   2709      1     31    155       1.000           30.00    
   2710      1     31    156       1.000           30.00    
   2711      1     31    157       1.000           30.00    
   2712      1     31    158       1.000           30.00    
   2713      1     31    159       1.000           30.00    
   2714      1     31    160       1.000           30.00    
   2715      1     31    161       1.000           30.00    
   2716      1     31    162       1.000           30.00    
   2717      1     31    163       1.000           30.00    
   2718      1     31    175       1.000           30.00    
   2719      1     31    176       1.000           30.00    
   2720      1     31    177       1.000           30.00    
   2721      1     31    178       1.000           30.00    
   2722      1     31    179       1.000           30.00    
   2723      1     31    180       1.000           30.00    
   2724      1     31    181       1.000           30.00    
   2725      1     31    182       1.000           30.00    
   2726      1     31    183       1.000           30.00    
   2727      1     31    184       1.000           30.00    
   2728      1     31    185       1.000           30.00    
   2729      1     31    186       1.000           30.00    
   2730      1     31    187       1.000           30.00    
   2731      1     31    188       1.000           30.00    
   2732      1     31    189       1.000           30.00    
   2733      1     31    190       1.000           30.00    
   2734      1     31    191       1.000           30.00    
   2735      1     31    192       1.000           30.00    
   2736      1     31    193       1.000           30.00    
   2737      1     31    194       1.000           30.00    
   2738      1     31    195       1.000           30.00    
   2739      1     31    196       1.000           30.00    
   2740      1     31    197       1.000           30.00    
   2741      1     31    198       1.000           30.00    
   2742      1     31    199       1.000           30.00    
   2743      1     32      2       1.000           30.00    
   2744      1     32      3       1.000           30.00    
   2745      1     32      4       1.000           30.00    
   2746      1     32      5       1.000           30.00    
   2747      1     32      6       1.000           30.00    
   2748      1     32      7       1.000           30.00    
   2749      1     32      8       1.000           30.00    
   2750      1     32      9       1.000           30.00    
   2751      1     32     10       1.000           30.00    
   2752      1     32     11       1.000           30.00    
   2753      1     32     12       1.000           30.00    
   2754      1     32     13       1.000           30.00    
   2755      1     32     14       1.000           30.00    
   2756      1     32     15       1.000           30.00    
   2757      1     32     16       1.000           30.00    
   2758      1     32     17       1.000           30.00    
   2759      1     32     18       1.000           30.00    
   2760      1     32     19       1.000           30.00    
   2761      1     32     20       1.000           30.00    
   2762      1     32     21       1.000           30.00    
   2763      1     32     22       1.000           30.00    
   2764      1     32     23       1.000           30.00    
   2765      1     32     24       1.000           30.00    
   2766      1     32     25       1.000           30.00    
   2767      1     32     26       1.000           30.00    
   2768      1     32     27       1.000           30.00    
   2769      1     32     28       1.000           30.00    
   2770      1     32     29       1.000           30.00    
   2771      1     32     30       1.000           30.00    
   2772      1     32     31       1.000           30.00    
   2773      1     32     32       1.000           30.00    
   2774      1     32     33       1.000           30.00    
   2775      1     32     34       1.000           30.00    
   2776      1     32     35       1.000           30.00    
   2777      1     32     36       1.000           30.00    
   2778      1     32     37       1.000           30.00    
   2779      1     32     38       1.000           30.00    
   2780      1     32     39       1.000           30.00    
   2781      1     32     40       1.000           30.00    
   2782      1     32     41       1.000           30.00    
   2783      1     32     42       1.000           30.00    
   2784      1     32     43       1.000           30.00    
   2785      1     32     44       1.000           30.00    
   2786      1     32     45       1.000           30.00    
   2787      1     32     46       1.000           30.00    
   2788      1     32     47       1.000           30.00    
   2789      1     32     48       1.000           30.00    
   2790      1     32     49       1.000           30.00    
   2791      1     32     50       1.000           30.00    
   2792      1     32     51       1.000           30.00    
   2793      1     32     52       1.000           30.00    
   2794      1     32     53       1.000           30.00    
   2795      1     32     54       1.000           30.00    
   2796      1     32     55       1.000           30.00    
   2797      1     32     56       1.000           30.00    
   2798      1     32     57       1.000           30.00    
   2799      1     32     58       1.000           30.00    
   2800      1     32     59       1.000           30.00    
   2801      1     32     60       1.000           30.00    
   2802      1     32     61       1.000           30.00    
   2803      1     32     62       1.000           30.00    
   2804      1     32     63       1.000           30.00    
   2805      1     32     64       1.000           30.00    
   2806      1     32     65       1.000           30.00    
   2807      1     32     66       1.000           30.00    
   2808      1     32     67       1.000           30.00    
   2809      1     32     68       1.000           30.00    
   2810      1     32     69       1.000           30.00    
   2811      1     32     70       1.000           30.00    
   2812      1     32     71       1.000           30.00    
   2813      1     32     72       1.000           30.00    
   2814      1     32     73       1.000           30.00    
   2815      1     32     74       1.000           30.00    
   2816      1     32     75       1.000           30.00    
   2817      1     32     76       1.000           30.00    
   2818      1     32     77       1.000           30.00    
   2819      1     32     78       1.000           30.00    
   2820      1     32     79       1.000           30.00    
   2821      1     32     80       1.000           30.00    
   2822      1     32     81       1.000           30.00    
   2823      1     32     82       1.000           30.00    
   2824      1     32     83       1.000           30.00    
   2825      1     32     84       1.000           30.00    
   2826      1     32     85       1.000           30.00    
   2827      1     32     86       1.000           30.00    
   2828      1     32     87       1.000           30.00    
   2829      1     32    114       1.000           30.00    
   2830      1     32    115       1.000           30.00    
   2831      1     32    116       1.000           30.00    
   2832      1     32    117       1.000           30.00    
   2833      1     32    118       1.000           30.00    
   2834      1     32    119       1.000           30.00    
   2835      1     32    120       1.000           30.00    
   2836      1     32    121       1.000           30.00    
   2837      1     32    122       1.000           30.00    
   2838      1     32    123       1.000           30.00    
   2839      1     32    124       1.000           30.00    
   2840      1     32    148       1.000           30.00    
   2841      1     32    149       1.000           30.00    
   2842      1     32    150       1.000           30.00    
   2843      1     32    151       1.000           30.00    
   2844      1     32    152       1.000           30.00    
   2845      1     32    153       1.000           30.00    
   2846      1     32    154       1.000           30.00    
   2847      1     32    155       1.000           30.00    
   2848      1     32    156       1.000           30.00    
   2849      1     32    157       1.000           30.00    
   2850      1     32    158       1.000           30.00    
   2851      1     32    159       1.000           30.00    
   2852      1     32    160       1.000           30.00    
   2853      1     32    161       1.000           30.00    
   2854      1     32    162       1.000           30.00    
   2855      1     32    172       1.000           30.00    
   2856      1     32    173       1.000           30.00    
   2857      1     32    174       1.000           30.00    
   2858      1     32    175       1.000           30.00    
   2859      1     32    176       1.000           30.00    
   2860      1     32    177       1.000           30.00    
   2861      1     32    178       1.000           30.00    
   2862      1     32    179       1.000           30.00    
   2863      1     32    180       1.000           30.00    
   2864      1     32    181       1.000           30.00    
   2865      1     32    182       1.000           30.00    
   2866      1     32    183       1.000           30.00    
   2867      1     32    184       1.000           30.00    
   2868      1     32    185       1.000           30.00    
   2869      1     32    186       1.000           30.00    
   2870      1     32    187       1.000           30.00    
   2871      1     32    188       1.000           30.00    
   2872      1     32    189       1.000           30.00    
   2873      1     32    190       1.000           30.00    
   2874      1     32    191       1.000           30.00    
   2875      1     32    192       1.000           30.00    
   2876      1     32    193       1.000           30.00    
   2877      1     32    194       1.000           30.00    
   2878      1     32    195       1.000           30.00    
   2879      1     32    196       1.000           30.00    
   2880      1     32    197       1.000           30.00    
   2881      1     32    198       1.000           30.00    
   2882      1     32    199       1.000           30.00    
   2883      1     33      2       1.000           30.00    
   2884      1     33      3       1.000           30.00    
   2885      1     33      4       1.000           30.00    
   2886      1     33      5       1.000           30.00    
   2887      1     33      6       1.000           30.00    
   2888      1     33      7       1.000           30.00    
   2889      1     33      8       1.000           30.00    
   2890      1     33      9       1.000           30.00    
   2891      1     33     10       1.000           30.00    
   2892      1     33     11       1.000           30.00    
   2893      1     33     12       1.000           30.00    
   2894      1     33     13       1.000           30.00    
   2895      1     33     14       1.000           30.00    
   2896      1     33     15       1.000           30.00    
   2897      1     33     16       1.000           30.00    
   2898      1     33     17       1.000           30.00    
   2899      1     33     18       1.000           30.00    
   2900      1     33     19       1.000           30.00    
   2901      1     33     20       1.000           30.00    
   2902      1     33     21       1.000           30.00    
   2903      1     33     22       1.000           30.00    
   2904      1     33     23       1.000           30.00    
   2905      1     33     24       1.000           30.00    
   2906      1     33     25       1.000           30.00    
   2907      1     33     26       1.000           30.00    
   2908      1     33     27       1.000           30.00    
   2909      1     33     28       1.000           30.00    
   2910      1     33     29       1.000           30.00    
   2911      1     33     30       1.000           30.00    
   2912      1     33     31       1.000           30.00    
   2913      1     33     32       1.000           30.00    
   2914      1     33     33       1.000           30.00    
   2915      1     33     34       1.000           30.00    
   2916      1     33     35       1.000           30.00    
   2917      1     33     36       1.000           30.00    
   2918      1     33     37       1.000           30.00    
   2919      1     33     38       1.000           30.00    
   2920      1     33     39       1.000           30.00    
   2921      1     33     40       1.000           30.00    
   2922      1     33     41       1.000           30.00    
   2923      1     33     42       1.000           30.00    
   2924      1     33     43       1.000           30.00    
   2925      1     33     44       1.000           30.00    
   2926      1     33     45       1.000           30.00    
   2927      1     33     46       1.000           30.00    
   2928      1     33     47       1.000           30.00    
   2929      1     33     48       1.000           30.00    
   2930      1     33     49       1.000           30.00    
   2931      1     33     50       1.000           30.00    
   2932      1     33     51       1.000           30.00    
   2933      1     33     52       1.000           30.00    
   2934      1     33     53       1.000           30.00    
   2935      1     33     54       1.000           30.00    
   2936      1     33     55       1.000           30.00    
   2937      1     33     56       1.000           30.00    
   2938      1     33     57       1.000           30.00    
   2939      1     33     58       1.000           30.00    
   2940      1     33     59       1.000           30.00    
   2941      1     33     60       1.000           30.00    
   2942      1     33     61       1.000           30.00    
   2943      1     33     62       1.000           30.00    
   2944      1     33     63       1.000           30.00    
   2945      1     33     64       1.000           30.00    
   2946      1     33     65       1.000           30.00    
   2947      1     33     66       1.000           30.00    
   2948      1     33     67       1.000           30.00    
   2949      1     33     68       1.000           30.00    
   2950      1     33     69       1.000           30.00    
   2951      1     33     70       1.000           30.00    
   2952      1     33     71       1.000           30.00    
   2953      1     33     72       1.000           30.00    
   2954      1     33     73       1.000           30.00    
   2955      1     33     74       1.000           30.00    
   2956      1     33     75       1.000           30.00    
   2957      1     33     76       1.000           30.00    
   2958      1     33     77       1.000           30.00    
   2959      1     33     78       1.000           30.00    
   2960      1     33     79       1.000           30.00    
   2961      1     33     80       1.000           30.00    
   2962      1     33     81       1.000           30.00    
   2963      1     33     82       1.000           30.00    
   2964      1     33     83       1.000           30.00    
   2965      1     33     84       1.000           30.00    
   2966      1     33     85       1.000           30.00    
   2967      1     33     86       1.000           30.00    
   2968      1     33     87       1.000           30.00    
   2969      1     33    114       1.000           30.00    
   2970      1     33    115       1.000           30.00    
   2971      1     33    116       1.000           30.00    
   2972      1     33    117       1.000           30.00    
   2973      1     33    118       1.000           30.00    
   2974      1     33    119       1.000           30.00    
   2975      1     33    120       1.000           30.00    
   2976      1     33    121       1.000           30.00    
   2977      1     33    122       1.000           30.00    
   2978      1     33    123       1.000           30.00    
   2979      1     33    124       1.000           30.00    
   2980      1     33    148       1.000           30.00    
   2981      1     33    149       1.000           30.00    
   2982      1     33    150       1.000           30.00    
   2983      1     33    151       1.000           30.00    
   2984      1     33    152       1.000           30.00    
   2985      1     33    153       1.000           30.00    
   2986      1     33    154       1.000           30.00    
   2987      1     33    155       1.000           30.00    
   2988      1     33    156       1.000           30.00    
   2989      1     33    157       1.000           30.00    
   2990      1     33    158       1.000           30.00    
   2991      1     33    159       1.000           30.00    
   2992      1     33    160       1.000           30.00    
   2993      1     33    161       1.000           30.00    
   2994      1     33    172       1.000           30.00    
   2995      1     33    173       1.000           30.00    
   2996      1     33    174       1.000           30.00    
   2997      1     33    175       1.000           30.00    
   2998      1     33    176       1.000           30.00    
   2999      1     33    177       1.000           30.00    
   3000      1     33    178       1.000           30.00    
   3001      1     33    179       1.000           30.00    
   3002      1     33    180       1.000           30.00    
   3003      1     33    181       1.000           30.00    
   3004      1     33    182       1.000           30.00    
   3005      1     33    183       1.000           30.00    
   3006      1     33    184       1.000           30.00    
   3007      1     33    185       1.000           30.00    
   3008      1     33    186       1.000           30.00    
   3009      1     33    187       1.000           30.00    
   3010      1     33    188       1.000           30.00    
   3011      1     33    189       1.000           30.00    
   3012      1     33    190       1.000           30.00    
   3013      1     33    191       1.000           30.00    
   3014      1     33    192       1.000           30.00    
   3015      1     33    193       1.000           30.00    
   3016      1     33    194       1.000           30.00    
   3017      1     33    195       1.000           30.00    
   3018      1     33    196       1.000           30.00    
   3019      1     33    197       1.000           30.00    
   3020      1     33    198       1.000           30.00    
   3021      1     33    199       1.000           30.00    
   3022      1     34      2       1.000           30.00    
   3023      1     34      3       1.000           30.00    
   3024      1     34      4       1.000           30.00    
   3025      1     34      5       1.000           30.00    
   3026      1     34      6       1.000           30.00    
   3027      1     34      7       1.000           30.00    
   3028      1     34      8       1.000           30.00    
   3029      1     34      9       1.000           30.00    
   3030      1     34     10       1.000           30.00    
   3031      1     34     11       1.000           30.00    
   3032      1     34     12       1.000           30.00    
   3033      1     34     13       1.000           30.00    
   3034      1     34     14       1.000           30.00    
   3035      1     34     15       1.000           30.00    
   3036      1     34     16       1.000           30.00    
   3037      1     34     17       1.000           30.00    
   3038      1     34     18       1.000           30.00    
   3039      1     34     19       1.000           30.00    
   3040      1     34     20       1.000           30.00    
   3041      1     34     21       1.000           30.00    
   3042      1     34     22       1.000           30.00    
   3043      1     34     23       1.000           30.00    
   3044      1     34     24       1.000           30.00    
   3045      1     34     25       1.000           30.00    
   3046      1     34     26       1.000           30.00    
   3047      1     34     27       1.000           30.00    
   3048      1     34     28       1.000           30.00    
   3049      1     34     29       1.000           30.00    
   3050      1     34     30       1.000           30.00    
   3051      1     34     31       1.000           30.00    
   3052      1     34     32       1.000           30.00    
   3053      1     34     33       1.000           30.00    
   3054      1     34     34       1.000           30.00    
   3055      1     34     35       1.000           30.00    
   3056      1     34     36       1.000           30.00    
   3057      1     34     37       1.000           30.00    
   3058      1     34     38       1.000           30.00    
   3059      1     34     39       1.000           30.00    
   3060      1     34     40       1.000           30.00    
   3061      1     34     41       1.000           30.00    
   3062      1     34     42       1.000           30.00    
   3063      1     34     43       1.000           30.00    
   3064      1     34     44       1.000           30.00    
   3065      1     34     45       1.000           30.00    
   3066      1     34     46       1.000           30.00    
   3067      1     34     47       1.000           30.00    
   3068      1     34     48       1.000           30.00    
   3069      1     34     49       1.000           30.00    
   3070      1     34     50       1.000           30.00    
   3071      1     34     51       1.000           30.00    
   3072      1     34     52       1.000           30.00    
   3073      1     34     53       1.000           30.00    
   3074      1     34     54       1.000           30.00    
   3075      1     34     55       1.000           30.00    
   3076      1     34     56       1.000           30.00    
   3077      1     34     57       1.000           30.00    
   3078      1     34     58       1.000           30.00    
   3079      1     34     59       1.000           30.00    
   3080      1     34     60       1.000           30.00    
   3081      1     34     61       1.000           30.00    
   3082      1     34     62       1.000           30.00    
   3083      1     34     63       1.000           30.00    
   3084      1     34     64       1.000           30.00    
   3085      1     34     65       1.000           30.00    
   3086      1     34     66       1.000           30.00    
   3087      1     34     67       1.000           30.00    
   3088      1     34     68       1.000           30.00    
   3089      1     34     69       1.000           30.00    
   3090      1     34     70       1.000           30.00    
   3091      1     34     71       1.000           30.00    
   3092      1     34     72       1.000           30.00    
   3093      1     34     73       1.000           30.00    
   3094      1     34     74       1.000           30.00    
   3095      1     34     75       1.000           30.00    
   3096      1     34     76       1.000           30.00    
   3097      1     34     77       1.000           30.00    
   3098      1     34     78       1.000           30.00    
   3099      1     34     79       1.000           30.00    
   3100      1     34     80       1.000           30.00    
   3101      1     34     81       1.000           30.00    
   3102      1     34     82       1.000           30.00    
   3103      1     34     83       1.000           30.00    
   3104      1     34     84       1.000           30.00    
   3105      1     34     85       1.000           30.00    
   3106      1     34     86       1.000           30.00    
   3107      1     34    114       1.000           30.00    
   3108      1     34    115       1.000           30.00    
   3109      1     34    116       1.000           30.00    
   3110      1     34    117       1.000           30.00    
   3111      1     34    118       1.000           30.00    
   3112      1     34    119       1.000           30.00    
   3113      1     34    120       1.000           30.00    
   3114      1     34    121       1.000           30.00    
   3115      1     34    122       1.000           30.00    
   3116      1     34    123       1.000           30.00    
   3117      1     34    141       1.000           30.00    
   3118      1     34    142       1.000           30.00    
   3119      1     34    143       1.000           30.00    
   3120      1     34    145       1.000           30.00    
   3121      1     34    146       1.000           30.00    
   3122      1     34    147       1.000           30.00    
   3123      1     34    148       1.000           30.00    
   3124      1     34    149       1.000           30.00    
   3125      1     34    150       1.000           30.00    
   3126      1     34    151       1.000           30.00    
   3127      1     34    152       1.000           30.00    
   3128      1     34    153       1.000           30.00    
   3129      1     34    154       1.000           30.00    
   3130      1     34    155       1.000           30.00    
   3131      1     34    156       1.000           30.00    
   3132      1     34    157       1.000           30.00    
   3133      1     34    158       1.000           30.00    
   3134      1     34    159       1.000           30.00    
   3135      1     34    160       1.000           30.00    
   3136      1     34    161       1.000           30.00    
   3137      1     34    169       1.000           30.00    
   3138      1     34    170       1.000           30.00    
   3139      1     34    171       1.000           30.00    
   3140      1     34    172       1.000           30.00    
   3141      1     34    173       1.000           30.00    
   3142      1     34    174       1.000           30.00    
   3143      1     34    175       1.000           30.00    
   3144      1     34    176       1.000           30.00    
   3145      1     34    177       1.000           30.00    
   3146      1     34    178       1.000           30.00    
   3147      1     34    179       1.000           30.00    
   3148      1     34    180       1.000           30.00    
   3149      1     34    181       1.000           30.00    
   3150      1     34    182       1.000           30.00    
   3151      1     34    183       1.000           30.00    
   3152      1     34    184       1.000           30.00    
   3153      1     34    185       1.000           30.00    
   3154      1     34    186       1.000           30.00    
   3155      1     34    187       1.000           30.00    
   3156      1     34    188       1.000           30.00    
   3157      1     34    189       1.000           30.00    
   3158      1     34    190       1.000           30.00    
   3159      1     34    191       1.000           30.00    
   3160      1     34    192       1.000           30.00    
   3161      1     34    193       1.000           30.00    
   3162      1     34    194       1.000           30.00    
   3163      1     34    195       1.000           30.00    
   3164      1     34    196       1.000           30.00    
   3165      1     34    197       1.000           30.00    
   3166      1     34    198       1.000           30.00    
   3167      1     34    199       1.000           30.00    
   3168      1     35      2       1.000           30.00    
   3169      1     35      3       1.000           30.00    
   3170      1     35      4       1.000           30.00    
   3171      1     35      5       1.000           30.00    
   3172      1     35      6       1.000           30.00    
   3173      1     35      7       1.000           30.00    
   3174      1     35      8       1.000           30.00    
   3175      1     35      9       1.000           30.00    
   3176      1     35     10       1.000           30.00    
   3177      1     35     11       1.000           30.00    
   3178      1     35     12       1.000           30.00    
   3179      1     35     13       1.000           30.00    
   3180      1     35     14       1.000           30.00    
   3181      1     35     15       1.000           30.00    
   3182      1     35     16       1.000           30.00    
   3183      1     35     17       1.000           30.00    
   3184      1     35     18       1.000           30.00    
   3185      1     35     19       1.000           30.00    
   3186      1     35     20       1.000           30.00    
   3187      1     35     21       1.000           30.00    
   3188      1     35     22       1.000           30.00    
   3189      1     35     23       1.000           30.00    
   3190      1     35     24       1.000           30.00    
   3191      1     35     25       1.000           30.00    
   3192      1     35     26       1.000           30.00    
   3193      1     35     27       1.000           30.00    
   3194      1     35     28       1.000           30.00    
   3195      1     35     29       1.000           30.00    
   3196      1     35     30       1.000           30.00    
   3197      1     35     31       1.000           30.00    
   3198      1     35     32       1.000           30.00    
   3199      1     35     33       1.000           30.00    
   3200      1     35     34       1.000           30.00    
   3201      1     35     35       1.000           30.00    
   3202      1     35     36       1.000           30.00    
   3203      1     35     37       1.000           30.00    
   3204      1     35     38       1.000           30.00    
   3205      1     35     39       1.000           30.00    
   3206      1     35     40       1.000           30.00    
   3207      1     35     41       1.000           30.00    
   3208      1     35     42       1.000           30.00    
   3209      1     35     43       1.000           30.00    
   3210      1     35     44       1.000           30.00    
   3211      1     35     45       1.000           30.00    
   3212      1     35     46       1.000           30.00    
   3213      1     35     47       1.000           30.00    
   3214      1     35     48       1.000           30.00    
   3215      1     35     49       1.000           30.00    
   3216      1     35     50       1.000           30.00    
   3217      1     35     51       1.000           30.00    
   3218      1     35     52       1.000           30.00    
   3219      1     35     53       1.000           30.00    
   3220      1     35     54       1.000           30.00    
   3221      1     35     55       1.000           30.00    
   3222      1     35     56       1.000           30.00    
   3223      1     35     57       1.000           30.00    
   3224      1     35     58       1.000           30.00    
   3225      1     35     59       1.000           30.00    
   3226      1     35     60       1.000           30.00    
   3227      1     35     61       1.000           30.00    
   3228      1     35     62       1.000           30.00    
   3229      1     35     63       1.000           30.00    
   3230      1     35     64       1.000           30.00    
   3231      1     35     65       1.000           30.00    
   3232      1     35     66       1.000           30.00    
   3233      1     35     67       1.000           30.00    
   3234      1     35     68       1.000           30.00    
   3235      1     35     69       1.000           30.00    
   3236      1     35     70       1.000           30.00    
   3237      1     35     71       1.000           30.00    
   3238      1     35     72       1.000           30.00    
   3239      1     35     73       1.000           30.00    
   3240      1     35     74       1.000           30.00    
   3241      1     35     75       1.000           30.00    
   3242      1     35     76       1.000           30.00    
   3243      1     35     77       1.000           30.00    
   3244      1     35     78       1.000           30.00    
   3245      1     35     79       1.000           30.00    
   3246      1     35     80       1.000           30.00    
   3247      1     35     81       1.000           30.00    
   3248      1     35     83       1.000           30.00    
   3249      1     35     84       1.000           30.00    
   3250      1     35     85       1.000           30.00    
   3251      1     35     86       1.000           30.00    
   3252      1     35     87       1.000           30.00    
   3253      1     35    114       1.000           30.00    
   3254      1     35    115       1.000           30.00    
   3255      1     35    116       1.000           30.00    
   3256      1     35    117       1.000           30.00    
   3257      1     35    118       1.000           30.00    
   3258      1     35    119       1.000           30.00    
   3259      1     35    120       1.000           30.00    
   3260      1     35    121       1.000           30.00    
   3261      1     35    122       1.000           30.00    
   3262      1     35    123       1.000           30.00    
   3263      1     35    124       1.000           30.00    
   3264      1     35    141       1.000           30.00    
   3265      1     35    142       1.000           30.00    
   3266      1     35    143       1.000           30.00    
   3267      1     35    144       1.000           30.00    
   3268      1     35    145       1.000           30.00    
   3269      1     35    146       1.000           30.00    
   3270      1     35    147       1.000           30.00    
   3271      1     35    148       1.000           30.00    
   3272      1     35    149       1.000           30.00    
   3273      1     35    150       1.000           30.00    
   3274      1     35    151       1.000           30.00    
   3275      1     35    152       1.000           30.00    
   3276      1     35    153       1.000           30.00    
   3277      1     35    154       1.000           30.00    
   3278      1     35    155       1.000           30.00    
   3279      1     35    156       1.000           30.00    
   3280      1     35    157       1.000           30.00    
   3281      1     35    158       1.000           30.00    
   3282      1     35    159       1.000           30.00    
   3283      1     35    160       1.000           30.00    
   3284      1     35    161       1.000           30.00    
   3285      1     35    162       1.000           30.00    
   3286      1     35    163       1.000           30.00    
   3287      1     35    166       1.000           30.00    
   3288      1     35    167       1.000           30.00    
   3289      1     35    168       1.000           30.00    
   3290      1     35    169       1.000           30.00    
   3291      1     35    170       1.000           30.00    
   3292      1     35    171       1.000           30.00    
   3293      1     35    172       1.000           30.00    
   3294      1     35    173       1.000           30.00    
   3295      1     35    174       1.000           30.00    
   3296      1     35    175       1.000           30.00    
   3297      1     35    176       1.000           30.00    
   3298      1     35    177       1.000           30.00    
   3299      1     35    178       1.000           30.00    
   3300      1     35    179       1.000           30.00    
   3301      1     35    180       1.000           30.00    
   3302      1     35    181       1.000           30.00    
   3303      1     35    182       1.000           30.00    
   3304      1     35    183       1.000           30.00    
   3305      1     35    184       1.000           30.00    
   3306      1     35    185       1.000           30.00    
   3307      1     35    186       1.000           30.00    
   3308      1     35    187       1.000           30.00    
   3309      1     35    188       1.000           30.00    
   3310      1     35    189       1.000           30.00    
   3311      1     35    190       1.000           30.00    
   3312      1     35    191       1.000           30.00    
   3313      1     35    192       1.000           30.00    
   3314      1     35    193       1.000           30.00    
   3315      1     35    194       1.000           30.00    
   3316      1     35    195       1.000           30.00    
   3317      1     35    196       1.000           30.00    
   3318      1     35    197       1.000           30.00    
   3319      1     35    198       1.000           30.00    
   3320      1     35    199       1.000           30.00    
   3321      1     36      2       1.000           30.00    
   3322      1     36      3       1.000           30.00    
   3323      1     36      4       1.000           30.00    
   3324      1     36      5       1.000           30.00    
   3325      1     36      6       1.000           30.00    
   3326      1     36      7       1.000           30.00    
   3327      1     36      8       1.000           30.00    
   3328      1     36      9       1.000           30.00    
   3329      1     36     10       1.000           30.00    
   3330      1     36     11       1.000           30.00    
   3331      1     36     12       1.000           30.00    
   3332      1     36     13       1.000           30.00    
   3333      1     36     14       1.000           30.00    
   3334      1     36     15       1.000           30.00    
   3335      1     36     16       1.000           30.00    
   3336      1     36     17       1.000           30.00    
   3337      1     36     18       1.000           30.00    
   3338      1     36     19       1.000           30.00    
   3339      1     36     20       1.000           30.00    
   3340      1     36     21       1.000           30.00    
   3341      1     36     22       1.000           30.00    
   3342      1     36     23       1.000           30.00    
   3343      1     36     24       1.000           30.00    
   3344      1     36     25       1.000           30.00    
   3345      1     36     26       1.000           30.00    
   3346      1     36     27       1.000           30.00    
   3347      1     36     28       1.000           30.00    
   3348      1     36     29       1.000           30.00    
   3349      1     36     30       1.000           30.00    
   3350      1     36     31       1.000           30.00    
   3351      1     36     32       1.000           30.00    
   3352      1     36     33       1.000           30.00    
   3353      1     36     34       1.000           30.00    
   3354      1     36     35       1.000           30.00    
   3355      1     36     36       1.000           30.00    
   3356      1     36     37       1.000           30.00    
   3357      1     36     38       1.000           30.00    
   3358      1     36     39       1.000           30.00    
   3359      1     36     40       1.000           30.00    
   3360      1     36     41       1.000           30.00    
   3361      1     36     42       1.000           30.00    
   3362      1     36     43       1.000           30.00    
   3363      1     36     44       1.000           30.00    
   3364      1     36     45       1.000           30.00    
   3365      1     36     46       1.000           30.00    
   3366      1     36     47       1.000           30.00    
   3367      1     36     48       1.000           30.00    
   3368      1     36     49       1.000           30.00    
   3369      1     36     50       1.000           30.00    
   3370      1     36     51       1.000           30.00    
   3371      1     36     52       1.000           30.00    
   3372      1     36     53       1.000           30.00    
   3373      1     36     54       1.000           30.00    
   3374      1     36     55       1.000           30.00    
   3375      1     36     56       1.000           30.00    
   3376      1     36     57       1.000           30.00    
   3377      1     36     58       1.000           30.00    
   3378      1     36     59       1.000           30.00    
   3379      1     36     60       1.000           30.00    
   3380      1     36     61       1.000           30.00    
   3381      1     36     62       1.000           30.00    
   3382      1     36     63       1.000           30.00    
   3383      1     36     64       1.000           30.00    
   3384      1     36     65       1.000           30.00    
   3385      1     36     66       1.000           30.00    
   3386      1     36     67       1.000           30.00    
   3387      1     36     68       1.000           30.00    
   3388      1     36     69       1.000           30.00    
   3389      1     36     70       1.000           30.00    
   3390      1     36     71       1.000           30.00    
   3391      1     36     72       1.000           30.00    
   3392      1     36     73       1.000           30.00    
   3393      1     36     74       1.000           30.00    
   3394      1     36     75       1.000           30.00    
   3395      1     36     76       1.000           30.00    
   3396      1     36     77       1.000           30.00    
   3397      1     36     78       1.000           30.00    
   3398      1     36     79       1.000           30.00    
   3399      1     36     80       1.000           30.00    
   3400      1     36     85       1.000           30.00    
   3401      1     36     86       1.000           30.00    
   3402      1     36     87       1.000           30.00    
   3403      1     36     88       1.000           30.00    
   3404      1     36    117       1.000           30.00    
   3405      1     36    118       1.000           30.00    
   3406      1     36    119       1.000           30.00    
   3407      1     36    120       1.000           30.00    
   3408      1     36    121       1.000           30.00    
   3409      1     36    122       1.000           30.00    
   3410      1     36    123       1.000           30.00    
   3411      1     36    124       1.000           30.00    
   3412      1     36    141       1.000           30.00    
   3413      1     36    142       1.000           30.00    
   3414      1     36    143       1.000           30.00    
   3415      1     36    144       1.000           30.00    
   3416      1     36    145       1.000           30.00    
   3417      1     36    146       1.000           30.00    
   3418      1     36    147       1.000           30.00    
   3419      1     36    148       1.000           30.00    
   3420      1     36    149       1.000           30.00    
   3421      1     36    150       1.000           30.00    
   3422      1     36    151       1.000           30.00    
   3423      1     36    152       1.000           30.00    
   3424      1     36    153       1.000           30.00    
   3425      1     36    154       1.000           30.00    
   3426      1     36    155       1.000           30.00    
   3427      1     36    156       1.000           30.00    
   3428      1     36    157       1.000           30.00    
   3429      1     36    158       1.000           30.00    
   3430      1     36    159       1.000           30.00    
   3431      1     36    160       1.000           30.00    
   3432      1     36    161       1.000           30.00    
   3433      1     36    162       1.000           30.00    
   3434      1     36    163       1.000           30.00    
   3435      1     36    164       1.000           30.00    
   3436      1     36    165       1.000           30.00    
   3437      1     36    166       1.000           30.00    
   3438      1     36    167       1.000           30.00    
   3439      1     36    168       1.000           30.00    
   3440      1     36    169       1.000           30.00    
   3441      1     36    170       1.000           30.00    
   3442      1     36    171       1.000           30.00    
   3443      1     36    172       1.000           30.00    
   3444      1     36    173       1.000           30.00    
   3445      1     36    174       1.000           30.00    
   3446      1     36    175       1.000           30.00    
   3447      1     36    176       1.000           30.00    
   3448      1     36    177       1.000           30.00    
   3449      1     36    178       1.000           30.00    
   3450      1     36    179       1.000           30.00    
   3451      1     36    180       1.000           30.00    
   3452      1     36    181       1.000           30.00    
   3453      1     36    182       1.000           30.00    
   3454      1     36    183       1.000           30.00    
   3455      1     36    184       1.000           30.00    
   3456      1     36    185       1.000           30.00    
   3457      1     36    186       1.000           30.00    
   3458      1     36    187       1.000           30.00    
   3459      1     36    188       1.000           30.00    
   3460      1     36    189       1.000           30.00    
   3461      1     36    190       1.000           30.00    
   3462      1     36    191       1.000           30.00    
   3463      1     36    192       1.000           30.00    
   3464      1     36    193       1.000           30.00    
   3465      1     36    194       1.000           30.00    
   3466      1     36    195       1.000           30.00    
   3467      1     36    196       1.000           30.00    
   3468      1     36    197       1.000           30.00    
   3469      1     36    198       1.000           30.00    
   3470      1     36    199       1.000           30.00    
   3471      1     37      2       1.000           30.00    
   3472      1     37      3       1.000           30.00    
   3473      1     37      4       1.000           30.00    
   3474      1     37      5       1.000           30.00    
   3475      1     37      6       1.000           30.00    
   3476      1     37      7       1.000           30.00    
   3477      1     37      8       1.000           30.00    
   3478      1     37      9       1.000           30.00    
   3479      1     37     10       1.000           30.00    
   3480      1     37     11       1.000           30.00    
   3481      1     37     12       1.000           30.00    
   3482      1     37     13       1.000           30.00    
   3483      1     37     14       1.000           30.00    
   3484      1     37     15       1.000           30.00    
   3485      1     37     16       1.000           30.00    
   3486      1     37     17       1.000           30.00    
   3487      1     37     18       1.000           30.00    
   3488      1     37     19       1.000           30.00    
   3489      1     37     20       1.000           30.00    
   3490      1     37     21       1.000           30.00    
   3491      1     37     22       1.000           30.00    
   3492      1     37     23       1.000           30.00    
   3493      1     37     24       1.000           30.00    
   3494      1     37     25       1.000           30.00    
   3495      1     37     26       1.000           30.00    
   3496      1     37     27       1.000           30.00    
   3497      1     37     28       1.000           30.00    
   3498      1     37     29       1.000           30.00    
   3499      1     37     30       1.000           30.00    
   3500      1     37     31       1.000           30.00    
   3501      1     37     32       1.000           30.00    
   3502      1     37     33       1.000           30.00    
   3503      1     37     34       1.000           30.00    
   3504      1     37     35       1.000           30.00    
   3505      1     37     36       1.000           30.00    
   3506      1     37     37       1.000           30.00    
   3507      1     37     38       1.000           30.00    
   3508      1     37     39       1.000           30.00    
   3509      1     37     40       1.000           30.00    
   3510      1     37     41       1.000           30.00    
   3511      1     37     42       1.000           30.00    
   3512      1     37     43       1.000           30.00    
   3513      1     37     44       1.000           30.00    
   3514      1     37     45       1.000           30.00    
   3515      1     37     46       1.000           30.00    
   3516      1     37     47       1.000           30.00    
   3517      1     37     48       1.000           30.00    
   3518      1     37     49       1.000           30.00    
   3519      1     37     50       1.000           30.00    
   3520      1     37     51       1.000           30.00    
   3521      1     37     52       1.000           30.00    
   3522      1     37     53       1.000           30.00    
   3523      1     37     54       1.000           30.00    
   3524      1     37     55       1.000           30.00    
   3525      1     37     56       1.000           30.00    
   3526      1     37     57       1.000           30.00    
   3527      1     37     58       1.000           30.00    
   3528      1     37     59       1.000           30.00    
   3529      1     37     60       1.000           30.00    
   3530      1     37     61       1.000           30.00    
   3531      1     37     62       1.000           30.00    
   3532      1     37     63       1.000           30.00    
   3533      1     37     64       1.000           30.00    
   3534      1     37     65       1.000           30.00    
   3535      1     37     66       1.000           30.00    
   3536      1     37     67       1.000           30.00    
   3537      1     37     68       1.000           30.00    
   3538      1     37     69       1.000           30.00    
   3539      1     37     70       1.000           30.00    
   3540      1     37     71       1.000           30.00    
   3541      1     37     72       1.000           30.00    
   3542      1     37     73       1.000           30.00    
   3543      1     37     74       1.000           30.00    
   3544      1     37     75       1.000           30.00    
   3545      1     37     76       1.000           30.00    
   3546      1     37     77       1.000           30.00    
   3547      1     37     78       1.000           30.00    
   3548      1     37     86       1.000           30.00    
   3549      1     37     87       1.000           30.00    
   3550      1     37     88       1.000           30.00    
   3551      1     37    118       1.000           30.00    
   3552      1     37    119       1.000           30.00    
   3553      1     37    120       1.000           30.00    
   3554      1     37    121       1.000           30.00    
   3555      1     37    122       1.000           30.00    
   3556      1     37    123       1.000           30.00    
   3557      1     37    124       1.000           30.00    
   3558      1     37    141       1.000           30.00    
   3559      1     37    142       1.000           30.00    
   3560      1     37    143       1.000           30.00    
   3561      1     37    144       1.000           30.00    
   3562      1     37    145       1.000           30.00    
   3563      1     37    146       1.000           30.00    
   3564      1     37    147       1.000           30.00    
   3565      1     37    148       1.000           30.00    
   3566      1     37    149       1.000           30.00    
   3567      1     37    150       1.000           30.00    
   3568      1     37    151       1.000           30.00    
   3569      1     37    152       1.000           30.00    
   3570      1     37    153       1.000           30.00    
   3571      1     37    154       1.000           30.00    
   3572      1     37    155       1.000           30.00    
   3573      1     37    156       1.000           30.00    
   3574      1     37    157       1.000           30.00    
   3575      1     37    158       1.000           30.00    
   3576      1     37    159       1.000           30.00    
   3577      1     37    160       1.000           30.00    
   3578      1     37    161       1.000           30.00    
   3579      1     37    162       1.000           30.00    
   3580      1     37    163       1.000           30.00    
   3581      1     37    164       1.000           30.00    
   3582      1     37    165       1.000           30.00    
   3583      1     37    166       1.000           30.00    
   3584      1     37    167       1.000           30.00    
   3585      1     37    168       1.000           30.00    
   3586      1     37    169       1.000           30.00    
   3587      1     37    170       1.000           30.00    
   3588      1     37    171       1.000           30.00    
   3589      1     37    172       1.000           30.00    
   3590      1     37    173       1.000           30.00    
   3591      1     37    174       1.000           30.00    
   3592      1     37    175       1.000           30.00    
   3593      1     37    176       1.000           30.00    
   3594      1     37    177       1.000           30.00    
   3595      1     37    178       1.000           30.00    
   3596      1     37    179       1.000           30.00    
   3597      1     37    180       1.000           30.00    
   3598      1     37    181       1.000           30.00    
   3599      1     37    182       1.000           30.00    
   3600      1     37    183       1.000           30.00    
   3601      1     37    184       1.000           30.00    
   3602      1     37    185       1.000           30.00    
   3603      1     37    186       1.000           30.00    
   3604      1     37    187       1.000           30.00    
   3605      1     37    188       1.000           30.00    
   3606      1     37    189       1.000           30.00    
   3607      1     37    190       1.000           30.00    
   3608      1     37    191       1.000           30.00    
   3609      1     37    192       1.000           30.00    
   3610      1     37    193       1.000           30.00    
   3611      1     37    194       1.000           30.00    
   3612      1     37    195       1.000           30.00    
   3613      1     37    196       1.000           30.00    
   3614      1     37    197       1.000           30.00    
   3615      1     37    198       1.000           30.00    
   3616      1     37    199       1.000           30.00    
   3617      1     38      2       1.000           30.00    
   3618      1     38      3       1.000           30.00    
   3619      1     38      4       1.000           30.00    
   3620      1     38      5       1.000           30.00    
   3621      1     38      6       1.000           30.00    
   3622      1     38      7       1.000           30.00    
   3623      1     38      8       1.000           30.00    
   3624      1     38      9       1.000           30.00    
   3625      1     38     10       1.000           30.00    
   3626      1     38     11       1.000           30.00    
   3627      1     38     12       1.000           30.00    
   3628      1     38     13       1.000           30.00    
   3629      1     38     14       1.000           30.00    
   3630      1     38     15       1.000           30.00    
   3631      1     38     16       1.000           30.00    
   3632      1     38     17       1.000           30.00    
   3633      1     38     18       1.000           30.00    
   3634      1     38     19       1.000           30.00    
   3635      1     38     20       1.000           30.00    
   3636      1     38     21       1.000           30.00    
   3637      1     38     22       1.000           30.00    
   3638      1     38     23       1.000           30.00    
   3639      1     38     24       1.000           30.00    
   3640      1     38     25       1.000           30.00    
   3641      1     38     26       1.000           30.00    
   3642      1     38     27       1.000           30.00    
   3643      1     38     28       1.000           30.00    
   3644      1     38     29       1.000           30.00    
   3645      1     38     30       1.000           30.00    
   3646      1     38     31       1.000           30.00    
   3647      1     38     32       1.000           30.00    
   3648      1     38     33       1.000           30.00    
   3649      1     38     34       1.000           30.00    
   3650      1     38     35       1.000           30.00    
   3651      1     38     36       1.000           30.00    
   3652      1     38     37       1.000           30.00    
   3653      1     38     38       1.000           30.00    
   3654      1     38     39       1.000           30.00    
   3655      1     38     40       1.000           30.00    
   3656      1     38     41       1.000           30.00    
   3657      1     38     42       1.000           30.00    
   3658      1     38     43       1.000           30.00    
   3659      1     38     44       1.000           30.00    
   3660      1     38     45       1.000           30.00    
   3661      1     38     46       1.000           30.00    
   3662      1     38     47       1.000           30.00    
   3663      1     38     48       1.000           30.00    
   3664      1     38     49       1.000           30.00    
   3665      1     38     50       1.000           30.00    
   3666      1     38     51       1.000           30.00    
   3667      1     38     52       1.000           30.00    
   3668      1     38     53       1.000           30.00    
   3669      1     38     54       1.000           30.00    
   3670      1     38     55       1.000           30.00    
   3671      1     38     56       1.000           30.00    
   3672      1     38     57       1.000           30.00    
   3673      1     38     58       1.000           30.00    
   3674      1     38     59       1.000           30.00    
   3675      1     38     60       1.000           30.00    
   3676      1     38     61       1.000           30.00    
   3677      1     38     62       1.000           30.00    
   3678      1     38     63       1.000           30.00    
   3679      1     38     64       1.000           30.00    
   3680      1     38     65       1.000           30.00    
   3681      1     38     66       1.000           30.00    
   3682      1     38     67       1.000           30.00    
   3683      1     38     68       1.000           30.00    
   3684      1     38     69       1.000           30.00    
   3685      1     38     70       1.000           30.00    
   3686      1     38     71       1.000           30.00    
   3687      1     38     72       1.000           30.00    
   3688      1     38     73       1.000           30.00    
   3689      1     38     74       1.000           30.00    
   3690      1     38     75       1.000           30.00    
   3691      1     38     76       1.000           30.00    
   3692      1     38     77       1.000           30.00    
   3693      1     38     86       1.000           30.00    
   3694      1     38     87       1.000           30.00    
   3695      1     38    117       1.000           30.00    
   3696      1     38    118       1.000           30.00    
   3697      1     38    119       1.000           30.00    
   3698      1     38    120       1.000           30.00    
   3699      1     38    121       1.000           30.00    
   3700      1     38    122       1.000           30.00    
   3701      1     38    123       1.000           30.00    
   3702      1     38    124       1.000           30.00    
   3703      1     38    125       1.000           30.00    
   3704      1     38    137       1.000           30.00    
   3705      1     38    138       1.000           30.00    
   3706      1     38    139       1.000           30.00    
   3707      1     38    140       1.000           30.00    
   3708      1     38    141       1.000           30.00    
   3709      1     38    142       1.000           30.00    
   3710      1     38    143       1.000           30.00    
   3711      1     38    144       1.000           30.00    
   3712      1     38    145       1.000           30.00    
   3713      1     38    146       1.000           30.00    
   3714      1     38    147       1.000           30.00    
   3715      1     38    148       1.000           30.00    
   3716      1     38    149       1.000           30.00    
   3717      1     38    150       1.000           30.00    
   3718      1     38    151       1.000           30.00    
   3719      1     38    152       1.000           30.00    
   3720      1     38    153       1.000           30.00    
   3721      1     38    154       1.000           30.00    
   3722      1     38    155       1.000           30.00    
   3723      1     38    156       1.000           30.00    
   3724      1     38    157       1.000           30.00    
   3725      1     38    158       1.000           30.00    
   3726      1     38    159       1.000           30.00    
   3727      1     38    160       1.000           30.00    
   3728      1     38    161       1.000           30.00    
   3729      1     38    162       1.000           30.00    
   3730      1     38    163       1.000           30.00    
   3731      1     38    164       1.000           30.00    
   3732      1     38    165       1.000           30.00    
   3733      1     38    166       1.000           30.00    
   3734      1     38    167       1.000           30.00    
   3735      1     38    168       1.000           30.00    
   3736      1     38    169       1.000           30.00    
   3737      1     38    170       1.000           30.00    
   3738      1     38    171       1.000           30.00    
   3739      1     38    172       1.000           30.00    
   3740      1     38    173       1.000           30.00    
   3741      1     38    174       1.000           30.00    
   3742      1     38    175       1.000           30.00    
   3743      1     38    176       1.000           30.00    
   3744      1     38    177       1.000           30.00    
   3745      1     38    178       1.000           30.00    
   3746      1     38    179       1.000           30.00    
   3747      1     38    180       1.000           30.00    
   3748      1     38    181       1.000           30.00    
   3749      1     38    182       1.000           30.00    
   3750      1     38    183       1.000           30.00    
   3751      1     38    184       1.000           30.00    
   3752      1     38    185       1.000           30.00    
   3753      1     38    186       1.000           30.00    
   3754      1     38    187       1.000           30.00    
   3755      1     38    188       1.000           30.00    
   3756      1     38    189       1.000           30.00    
   3757      1     38    190       1.000           30.00    
   3758      1     38    191       1.000           30.00    
   3759      1     38    192       1.000           30.00    
   3760      1     38    193       1.000           30.00    
   3761      1     38    194       1.000           30.00    
   3762      1     38    195       1.000           30.00    
   3763      1     38    196       1.000           30.00    
   3764      1     38    197       1.000           30.00    
   3765      1     38    198       1.000           30.00    
   3766      1     38    199       1.000           30.00    
   3767      1     39      2       1.000           30.00    
   3768      1     39      3       1.000           30.00    
   3769      1     39      4       1.000           30.00    
   3770      1     39      5       1.000           30.00    
   3771      1     39      6       1.000           30.00    
   3772      1     39      7       1.000           30.00    
   3773      1     39      8       1.000           30.00    
   3774      1     39      9       1.000           30.00    
   3775      1     39     10       1.000           30.00    
   3776      1     39     11       1.000           30.00    
   3777      1     39     12       1.000           30.00    
   3778      1     39     13       1.000           30.00    
   3779      1     39     14       1.000           30.00    
   3780      1     39     15       1.000           30.00    
   3781      1     39     16       1.000           30.00    
   3782      1     39     17       1.000           30.00    
   3783      1     39     18       1.000           30.00    
   3784      1     39     19       1.000           30.00    
   3785      1     39     20       1.000           30.00    
   3786      1     39     21       1.000           30.00    
   3787      1     39     22       1.000           30.00    
   3788      1     39     23       1.000           30.00    
   3789      1     39     24       1.000           30.00    
   3790      1     39     25       1.000           30.00    
   3791      1     39     26       1.000           30.00    
   3792      1     39     27       1.000           30.00    
   3793      1     39     28       1.000           30.00    
   3794      1     39     29       1.000           30.00    
   3795      1     39     30       1.000           30.00    
   3796      1     39     31       1.000           30.00    
   3797      1     39     32       1.000           30.00    
   3798      1     39     33       1.000           30.00    
   3799      1     39     34       1.000           30.00    
   3800      1     39     35       1.000           30.00    
   3801      1     39     36       1.000           30.00    
   3802      1     39     37       1.000           30.00    
   3803      1     39     38       1.000           30.00    
   3804      1     39     39       1.000           30.00    
   3805      1     39     40       1.000           30.00    
   3806      1     39     41       1.000           30.00    
   3807      1     39     42       1.000           30.00    
   3808      1     39     43       1.000           30.00    
   3809      1     39     44       1.000           30.00    
   3810      1     39     45       1.000           30.00    
   3811      1     39     46       1.000           30.00    
   3812      1     39     47       1.000           30.00    
   3813      1     39     49       1.000           30.00    
   3814      1     39     50       1.000           30.00    
   3815      1     39     51       1.000           30.00    
   3816      1     39     52       1.000           30.00    
   3817      1     39     53       1.000           30.00    
   3818      1     39     54       1.000           30.00    
   3819      1     39     55       1.000           30.00    
   3820      1     39     56       1.000           30.00    
   3821      1     39     57       1.000           30.00    
   3822      1     39     58       1.000           30.00    
   3823      1     39     59       1.000           30.00    
   3824      1     39     60       1.000           30.00    
   3825      1     39     61       1.000           30.00    
   3826      1     39     64       1.000           30.00    
   3827      1     39     65       1.000           30.00    
   3828      1     39     66       1.000           30.00    
   3829      1     39     67       1.000           30.00    
   3830      1     39     68       1.000           30.00    
   3831      1     39     69       1.000           30.00    
   3832      1     39     70       1.000           30.00    
   3833      1     39     71       1.000           30.00    
   3834      1     39     72       1.000           30.00    
   3835      1     39     73       1.000           30.00    
   3836      1     39     74       1.000           30.00    
   3837      1     39     75       1.000           30.00    
   3838      1     39     76       1.000           30.00    
   3839      1     39    116       1.000           30.00    
   3840      1     39    117       1.000           30.00    
   3841      1     39    118       1.000           30.00    
   3842      1     39    119       1.000           30.00    
   3843      1     39    120       1.000           30.00    
   3844      1     39    121       1.000           30.00    
   3845      1     39    122       1.000           30.00    
   3846      1     39    123       1.000           30.00    
   3847      1     39    124       1.000           30.00    
   3848      1     39    125       1.000           30.00    
   3849      1     39    132       1.000           30.00    
   3850      1     39    134       1.000           30.00    
   3851      1     39    135       1.000           30.00    
   3852      1     39    136       1.000           30.00    
   3853      1     39    137       1.000           30.00    
   3854      1     39    138       1.000           30.00    
   3855      1     39    139       1.000           30.00    
   3856      1     39    140       1.000           30.00    
   3857      1     39    141       1.000           30.00    
   3858      1     39    142       1.000           30.00    
   3859      1     39    143       1.000           30.00    
   3860      1     39    144       1.000           30.00    
   3861      1     39    145       1.000           30.00    
   3862      1     39    146       1.000           30.00    
   3863      1     39    147       1.000           30.00    
   3864      1     39    148       1.000           30.00    
   3865      1     39    149       1.000           30.00    
   3866      1     39    150       1.000           30.00    
   3867      1     39    151       1.000           30.00    
   3868      1     39    152       1.000           30.00    
   3869      1     39    153       1.000           30.00    
   3870      1     39    154       1.000           30.00    
   3871      1     39    155       1.000           30.00    
   3872      1     39    156       1.000           30.00    
   3873      1     39    157       1.000           30.00    
   3874      1     39    158       1.000           30.00    
   3875      1     39    159       1.000           30.00    
   3876      1     39    160       1.000           30.00    
   3877      1     39    161       1.000           30.00    
   3878      1     39    162       1.000           30.00    
   3879      1     39    163       1.000           30.00    
   3880      1     39    164       1.000           30.00    
   3881      1     39    165       1.000           30.00    
   3882      1     39    166       1.000           30.00    
   3883      1     39    167       1.000           30.00    
   3884      1     39    168       1.000           30.00    
   3885      1     39    169       1.000           30.00    
   3886      1     39    170       1.000           30.00    
   3887      1     39    171       1.000           30.00    
   3888      1     39    172       1.000           30.00    
   3889      1     39    173       1.000           30.00    
   3890      1     39    174       1.000           30.00    
   3891      1     39    175       1.000           30.00    
   3892      1     39    176       1.000           30.00    
   3893      1     39    177       1.000           30.00    
   3894      1     39    178       1.000           30.00    
   3895      1     39    179       1.000           30.00    
   3896      1     39    180       1.000           30.00    
   3897      1     39    181       1.000           30.00    
   3898      1     39    182       1.000           30.00    
   3899      1     39    183       1.000           30.00    
   3900      1     39    184       1.000           30.00    
   3901      1     39    185       1.000           30.00    
   3902      1     39    186       1.000           30.00    
   3903      1     39    187       1.000           30.00    
   3904      1     39    188       1.000           30.00    
   3905      1     39    189       1.000           30.00    
   3906      1     39    190       1.000           30.00    
   3907      1     39    191       1.000           30.00    
   3908      1     39    192       1.000           30.00    
   3909      1     39    193       1.000           30.00    
   3910      1     39    194       1.000           30.00    
   3911      1     39    195       1.000           30.00    
   3912      1     39    196       1.000           30.00    
   3913      1     39    197       1.000           30.00    
   3914      1     39    198       1.000           30.00    
   3915      1     39    199       1.000           30.00    
   3916      1     40      2       1.000           30.00    
   3917      1     40      3       1.000           30.00    
   3918      1     40      4       1.000           30.00    
   3919      1     40      5       1.000           30.00    
   3920      1     40      6       1.000           30.00    
   3921      1     40      7       1.000           30.00    
   3922      1     40      8       1.000           30.00    
   3923      1     40      9       1.000           30.00    
   3924      1     40     10       1.000           30.00    
   3925      1     40     11       1.000           30.00    
   3926      1     40     12       1.000           30.00    
   3927      1     40     13       1.000           30.00    
   3928      1     40     14       1.000           30.00    
   3929      1     40     15       1.000           30.00    
   3930      1     40     16       1.000           30.00    
   3931      1     40     17       1.000           30.00    
   3932      1     40     18       1.000           30.00    
   3933      1     40     19       1.000           30.00    
   3934      1     40     20       1.000           30.00    
   3935      1     40     21       1.000           30.00    
   3936      1     40     22       1.000           30.00    
   3937      1     40     23       1.000           30.00    
   3938      1     40     24       1.000           30.00    
   3939      1     40     25       1.000           30.00    
   3940      1     40     26       1.000           30.00    
   3941      1     40     27       1.000           30.00    
   3942      1     40     28       1.000           30.00    
   3943      1     40     29       1.000           30.00    
   3944      1     40     30       1.000           30.00    
   3945      1     40     31       1.000           30.00    
   3946      1     40     32       1.000           30.00    
   3947      1     40     33       1.000           30.00    
   3948      1     40     34       1.000           30.00    
   3949      1     40     35       1.000           30.00    
   3950      1     40     36       1.000           30.00    
   3951      1     40     37       1.000           30.00    
   3952      1     40     38       1.000           30.00    
   3953      1     40     40       1.000           30.00    
   3954      1     40     41       1.000           30.00    
   3955      1     40     42       1.000           30.00    
   3956      1     40     43       1.000           30.00    
   3957      1     40     45       1.000           30.00    
   3958      1     40     46       1.000           30.00    
   3959      1     40     50       1.000           30.00    
   3960      1     40     51       1.000           30.00    
   3961      1     40     52       1.000           30.00    
   3962      1     40     53       1.000           30.00    
   3963      1     40     54       1.000           30.00    
   3964      1     40     55       1.000           30.00    
   3965      1     40     56       1.000           30.00    
   3966      1     40     57       1.000           30.00    
   3967      1     40     63       1.000           30.00    
   3968      1     40     64       1.000           30.00    
   3969      1     40     65       1.000           30.00    
   3970      1     40     66       1.000           30.00    
   3971      1     40     67       1.000           30.00    
   3972      1     40     68       1.000           30.00    
   3973      1     40     69       1.000           30.00    
   3974      1     40     70       1.000           30.00    
   3975      1     40     71       1.000           30.00    
   3976      1     40     72       1.000           30.00    
   3977      1     40     73       1.000           30.00    
   3978      1     40     74       1.000           30.00    
   3979      1     40     75       1.000           30.00    
   3980      1     40     76       1.000           30.00    
   3981      1     40    114       1.000           30.00    
   3982      1     40    115       1.000           30.00    
   3983      1     40    116       1.000           30.00    
   3984      1     40    117       1.000           30.00    
   3985      1     40    118       1.000           30.00    
   3986      1     40    119       1.000           30.00    
   3987      1     40    120       1.000           30.00    
   3988      1     40    121       1.000           30.00    
   3989      1     40    122       1.000           30.00    
   3990      1     40    123       1.000           30.00    
   3991      1     40    124       1.000           30.00    
   3992      1     40    126       1.000           30.00    
   3993      1     40    127       1.000           30.00    
   3994      1     40    128       1.000           30.00    
   3995      1     40    129       1.000           30.00    
   3996      1     40    130       1.000           30.00    
   3997      1     40    131       1.000           30.00    
   3998      1     40    132       1.000           30.00    
   3999      1     40    133       1.000           30.00    
   4000      1     40    134       1.000           30.00    
   4001      1     40    135       1.000           30.00    
   4002      1     40    136       1.000           30.00    
   4003      1     40    137       1.000           30.00    
   4004      1     40    138       1.000           30.00    
   4005      1     40    139       1.000           30.00    
   4006      1     40    140       1.000           30.00    
   4007      1     40    141       1.000           30.00    
   4008      1     40    142       1.000           30.00    
   4009      1     40    143       1.000           30.00    
   4010      1     40    144       1.000           30.00    
   4011      1     40    145       1.000           30.00    
   4012      1     40    146       1.000           30.00    
   4013      1     40    147       1.000           30.00    
   4014      1     40    148       1.000           30.00    
   4015      1     40    149       1.000           30.00    
   4016      1     40    150       1.000           30.00    
   4017      1     40    151       1.000           30.00    
   4018      1     40    152       1.000           30.00    
   4019      1     40    153       1.000           30.00    
   4020      1     40    154       1.000           30.00    
   4021      1     40    155       1.000           30.00    
   4022      1     40    156       1.000           30.00    
   4023      1     40    157       1.000           30.00    
   4024      1     40    158       1.000           30.00    
   4025      1     40    159       1.000           30.00    
   4026      1     40    160       1.000           30.00    
   4027      1     40    161       1.000           30.00    
   4028      1     40    162       1.000           30.00    
   4029      1     40    163       1.000           30.00    
   4030      1     40    164       1.000           30.00    
   4031      1     40    165       1.000           30.00    
   4032      1     40    166       1.000           30.00    
   4033      1     40    167       1.000           30.00    
   4034      1     40    168       1.000           30.00    
   4035      1     40    169       1.000           30.00    
   4036      1     40    170       1.000           30.00    
   4037      1     40    171       1.000           30.00    
   4038      1     40    172       1.000           30.00    
   4039      1     40    173       1.000           30.00    
   4040      1     40    174       1.000           30.00    
   4041      1     40    175       1.000           30.00    
   4042      1     40    176       1.000           30.00    
   4043      1     40    177       1.000           30.00    
   4044      1     40    178       1.000           30.00    
   4045      1     40    179       1.000           30.00    
   4046      1     40    180       1.000           30.00    
   4047      1     40    181       1.000           30.00    
   4048      1     40    182       1.000           30.00    
   4049      1     40    183       1.000           30.00    
   4050      1     40    184       1.000           30.00    
   4051      1     40    185       1.000           30.00    
   4052      1     40    186       1.000           30.00    
   4053      1     40    187       1.000           30.00    
   4054      1     40    188       1.000           30.00    
   4055      1     40    189       1.000           30.00    
   4056      1     40    190       1.000           30.00    
   4057      1     40    191       1.000           30.00    
   4058      1     40    192       1.000           30.00    
   4059      1     40    193       1.000           30.00    
   4060      1     40    194       1.000           30.00    
   4061      1     40    195       1.000           30.00    
   4062      1     40    196       1.000           30.00    
   4063      1     40    197       1.000           30.00    
   4064      1     40    198       1.000           30.00    
   4065      1     40    199       1.000           30.00    
   4066      1     41      2       1.000           30.00    
   4067      1     41      3       1.000           30.00    
   4068      1     41      4       1.000           30.00    
   4069      1     41      5       1.000           30.00    
   4070      1     41      6       1.000           30.00    
   4071      1     41      7       1.000           30.00    
   4072      1     41      8       1.000           30.00    
   4073      1     41      9       1.000           30.00    
   4074      1     41     10       1.000           30.00    
   4075      1     41     11       1.000           30.00    
   4076      1     41     12       1.000           30.00    
   4077      1     41     13       1.000           30.00    
   4078      1     41     14       1.000           30.00    
   4079      1     41     15       1.000           30.00    
   4080      1     41     16       1.000           30.00    
   4081      1     41     17       1.000           30.00    
   4082      1     41     18       1.000           30.00    
   4083      1     41     19       1.000           30.00    
   4084      1     41     20       1.000           30.00    
   4085      1     41     21       1.000           30.00    
   4086      1     41     22       1.000           30.00    
   4087      1     41     23       1.000           30.00    
   4088      1     41     24       1.000           30.00    
   4089      1     41     25       1.000           30.00    
   4090      1     41     26       1.000           30.00    
   4091      1     41     27       1.000           30.00    
   4092      1     41     28       1.000           30.00    
   4093      1     41     29       1.000           30.00    
   4094      1     41     30       1.000           30.00    
   4095      1     41     31       1.000           30.00    
   4096      1     41     32       1.000           30.00    
   4097      1     41     33       1.000           30.00    
   4098      1     41     34       1.000           30.00    
   4099      1     41     35       1.000           30.00    
   4100      1     41     36       1.000           30.00    
   4101      1     41     37       1.000           30.00    
   4102      1     41     38       1.000           30.00    
   4103      1     41     41       1.000           30.00    
   4104      1     41     42       1.000           30.00    
   4105      1     41     43       1.000           30.00    
   4106      1     41     50       1.000           30.00    
   4107      1     41     51       1.000           30.00    
   4108      1     41     52       1.000           30.00    
   4109      1     41     53       1.000           30.00    
   4110      1     41     54       1.000           30.00    
   4111      1     41     55       1.000           30.00    
   4112      1     41     56       1.000           30.00    
   4113      1     41     63       1.000           30.00    
   4114      1     41     64       1.000           30.00    
   4115      1     41     67       1.000           30.00    
   4116      1     41     68       1.000           30.00    
   4117      1     41     69       1.000           30.00    
   4118      1     41     70       1.000           30.00    
   4119      1     41     72       1.000           30.00    
   4120      1     41     73       1.000           30.00    
   4121      1     41     74       1.000           30.00    
   4122      1     41    113       1.000           30.00    
   4123      1     41    114       1.000           30.00    
   4124      1     41    115       1.000           30.00    
   4125      1     41    116       1.000           30.00    
   4126      1     41    117       1.000           30.00    
   4127      1     41    118       1.000           30.00    
   4128      1     41    119       1.000           30.00    
   4129      1     41    120       1.000           30.00    
   4130      1     41    121       1.000           30.00    
   4131      1     41    122       1.000           30.00    
   4132      1     41    123       1.000           30.00    
   4133      1     41    124       1.000           30.00    
   4134      1     41    125       1.000           30.00    
   4135      1     41    126       1.000           30.00    
   4136      1     41    127       1.000           30.00    
   4137      1     41    128       1.000           30.00    
   4138      1     41    129       1.000           30.00    
   4139      1     41    130       1.000           30.00    
   4140      1     41    131       1.000           30.00    
   4141      1     41    132       1.000           30.00    
   4142      1     41    133       1.000           30.00    
   4143      1     41    134       1.000           30.00    
   4144      1     41    135       1.000           30.00    
   4145      1     41    136       1.000           30.00    
   4146      1     41    137       1.000           30.00    
   4147      1     41    138       1.000           30.00    
   4148      1     41    139       1.000           30.00    
   4149      1     41    140       1.000           30.00    
   4150      1     41    141       1.000           30.00    
   4151      1     41    142       1.000           30.00    
   4152      1     41    143       1.000           30.00    
   4153      1     41    144       1.000           30.00    
   4154      1     41    145       1.000           30.00    
   4155      1     41    146       1.000           30.00    
   4156      1     41    147       1.000           30.00    
   4157      1     41    148       1.000           30.00    
   4158      1     41    149       1.000           30.00    
   4159      1     41    150       1.000           30.00    
   4160      1     41    151       1.000           30.00    
   4161      1     41    152       1.000           30.00    
   4162      1     41    153       1.000           30.00    
   4163      1     41    154       1.000           30.00    
   4164      1     41    155       1.000           30.00    
   4165      1     41    156       1.000           30.00    
   4166      1     41    157       1.000           30.00    
   4167      1     41    158       1.000           30.00    
   4168      1     41    159       1.000           30.00    
   4169      1     41    160       1.000           30.00    
   4170      1     41    161       1.000           30.00    
   4171      1     41    162       1.000           30.00    
   4172      1     41    163       1.000           30.00    
   4173      1     41    164       1.000           30.00    
   4174      1     41    165       1.000           30.00    
   4175      1     41    166       1.000           30.00    
   4176      1     41    167       1.000           30.00    
   4177      1     41    168       1.000           30.00    
   4178      1     41    169       1.000           30.00    
   4179      1     41    170       1.000           30.00    
   4180      1     41    171       1.000           30.00    
   4181      1     41    172       1.000           30.00    
   4182      1     41    173       1.000           30.00    
   4183      1     41    174       1.000           30.00    
   4184      1     41    175       1.000           30.00    
   4185      1     41    176       1.000           30.00    
   4186      1     41    177       1.000           30.00    
   4187      1     41    178       1.000           30.00    
   4188      1     41    179       1.000           30.00    
   4189      1     41    180       1.000           30.00    
   4190      1     41    181       1.000           30.00    
   4191      1     41    182       1.000           30.00    
   4192      1     41    183       1.000           30.00    
   4193      1     41    184       1.000           30.00    
   4194      1     41    185       1.000           30.00    
   4195      1     41    186       1.000           30.00    
   4196      1     41    187       1.000           30.00    
   4197      1     41    188       1.000           30.00    
   4198      1     41    189       1.000           30.00    
   4199      1     41    190       1.000           30.00    
   4200      1     41    191       1.000           30.00    
   4201      1     41    192       1.000           30.00    
   4202      1     41    193       1.000           30.00    
   4203      1     41    194       1.000           30.00    
   4204      1     41    195       1.000           30.00    
   4205      1     41    196       1.000           30.00    
   4206      1     41    197       1.000           30.00    
   4207      1     41    198       1.000           30.00    
   4208      1     41    199       1.000           30.00    
   4209      1     42      2       1.000           30.00    
   4210      1     42      3       1.000           30.00    
   4211      1     42      4       1.000           30.00    
   4212      1     42      5       1.000           30.00    
   4213      1     42      6       1.000           30.00    
   4214      1     42      7       1.000           30.00    
   4215      1     42      8       1.000           30.00    
   4216      1     42      9       1.000           30.00    
   4217      1     42     10       1.000           30.00    
   4218      1     42     11       1.000           30.00    
   4219      1     42     12       1.000           30.00    
   4220      1     42     13       1.000           30.00    
   4221      1     42     14       1.000           30.00    
   4222      1     42     15       1.000           30.00    
   4223      1     42     16       1.000           30.00    
   4224      1     42     17       1.000           30.00    
   4225      1     42     18       1.000           30.00    
   4226      1     42     19       1.000           30.00    
   4227      1     42     20       1.000           30.00    
   4228      1     42     21       1.000           30.00    
   4229      1     42     22       1.000           30.00    
   4230      1     42     23       1.000           30.00    
   4231      1     42     24       1.000           30.00    
   4232      1     42     25       1.000           30.00    
   4233      1     42     26       1.000           30.00    
   4234      1     42     27       1.000           30.00    
   4235      1     42     28       1.000           30.00    
   4236      1     42     29       1.000           30.00    
   4237      1     42     30       1.000           30.00    
   4238      1     42     31       1.000           30.00    
   4239      1     42     32       1.000           30.00    
   4240      1     42     33       1.000           30.00    
   4241      1     42     37       1.000           30.00    
   4242      1     42     50       1.000           30.00    
   4243      1     42     51       1.000           30.00    
   4244      1     42     67       1.000           30.00    
   4245      1     42     68       1.000           30.00    
   4246      1     42     69       1.000           30.00    
   4247      1     42    115       1.000           30.00    
   4248      1     42    116       1.000           30.00    
   4249      1     42    117       1.000           30.00    
   4250      1     42    118       1.000           30.00    
   4251      1     42    119       1.000           30.00    
   4252      1     42    120       1.000           30.00    
   4253      1     42    121       1.000           30.00    
   4254      1     42    122       1.000           30.00    
   4255      1     42    123       1.000           30.00    
   4256      1     42    124       1.000           30.00    
   4257      1     42    125       1.000           30.00    
   4258      1     42    126       1.000           30.00    
   4259      1     42    127       1.000           30.00    
   4260      1     42    128       1.000           30.00    
   4261      1     42    129       1.000           30.00    
   4262      1     42    130       1.000           30.00    
   4263      1     42    131       1.000           30.00    
   4264      1     42    132       1.000           30.00    
   4265      1     42    133       1.000           30.00    
   4266      1     42    134       1.000           30.00    
   4267      1     42    135       1.000           30.00    
   4268      1     42    136       1.000           30.00    
   4269      1     42    137       1.000           30.00    
   4270      1     42    138       1.000           30.00    
   4271      1     42    139       1.000           30.00    
   4272      1     42    140       1.000           30.00    
   4273      1     42    141       1.000           30.00    
   4274      1     42    142       1.000           30.00    
   4275      1     42    143       1.000           30.00    
   4276      1     42    144       1.000           30.00    
   4277      1     42    145       1.000           30.00    
   4278      1     42    146       1.000           30.00    
   4279      1     42    147       1.000           30.00    
   4280      1     42    148       1.000           30.00    
   4281      1     42    149       1.000           30.00    
   4282      1     42    150       1.000           30.00    
   4283      1     42    151       1.000           30.00    
   4284      1     42    152       1.000           30.00    
   4285      1     42    153       1.000           30.00    
   4286      1     42    154       1.000           30.00    
   4287      1     42    155       1.000           30.00    
   4288      1     42    156       1.000           30.00    
   4289      1     42    157       1.000           30.00    
   4290      1     42    158       1.000           30.00    
   4291      1     42    159       1.000           30.00    
   4292      1     42    160       1.000           30.00    
   4293      1     42    161       1.000           30.00    
   4294      1     42    162       1.000           30.00    
   4295      1     42    163       1.000           30.00    
   4296      1     42    164       1.000           30.00    
   4297      1     42    165       1.000           30.00    
   4298      1     42    166       1.000           30.00    
   4299      1     42    167       1.000           30.00    
   4300      1     42    168       1.000           30.00    
   4301      1     42    169       1.000           30.00    
   4302      1     42    170       1.000           30.00    
   4303      1     42    171       1.000           30.00    
   4304      1     42    172       1.000           30.00    
   4305      1     42    173       1.000           30.00    
   4306      1     42    174       1.000           30.00    
   4307      1     42    175       1.000           30.00    
   4308      1     42    176       1.000           30.00    
   4309      1     42    177       1.000           30.00    
   4310      1     42    178       1.000           30.00    
   4311      1     42    179       1.000           30.00    
   4312      1     42    180       1.000           30.00    
   4313      1     42    181       1.000           30.00    
   4314      1     42    182       1.000           30.00    
   4315      1     42    183       1.000           30.00    
   4316      1     42    184       1.000           30.00    
   4317      1     42    185       1.000           30.00    
   4318      1     42    186       1.000           30.00    
   4319      1     42    187       1.000           30.00    
   4320      1     42    188       1.000           30.00    
   4321      1     42    189       1.000           30.00    
   4322      1     42    190       1.000           30.00    
   4323      1     42    191       1.000           30.00    
   4324      1     42    192       1.000           30.00    
   4325      1     42    193       1.000           30.00    
   4326      1     42    194       1.000           30.00    
   4327      1     42    195       1.000           30.00    
   4328      1     42    196       1.000           30.00    
   4329      1     42    197       1.000           30.00    
   4330      1     42    198       1.000           30.00    
   4331      1     42    199       1.000           30.00    
   4332      1     43      2       1.000           30.00    
   4333      1     43      3       1.000           30.00    
   4334      1     43      4       1.000           30.00    
   4335      1     43      5       1.000           30.00    
   4336      1     43      6       1.000           30.00    
   4337      1     43      7       1.000           30.00    
   4338      1     43      8       1.000           30.00    
   4339      1     43      9       1.000           30.00    
   4340      1     43     10       1.000           30.00    
   4341      1     43     11       1.000           30.00    
   4342      1     43     12       1.000           30.00    
   4343      1     43     13       1.000           30.00    
   4344      1     43     14       1.000           30.00    
   4345      1     43     15       1.000           30.00    
   4346      1     43     16       1.000           30.00    
   4347      1     43     17       1.000           30.00    
   4348      1     43     18       1.000           30.00    
   4349      1     43     19       1.000           30.00    
   4350      1     43     20       1.000           30.00    
   4351      1     43     21       1.000           30.00    
   4352      1     43     22       1.000           30.00    
   4353      1     43     23       1.000           30.00    
   4354      1     43     24       1.000           30.00    
   4355      1     43     25       1.000           30.00    
   4356      1     43     26       1.000           30.00    
   4357      1     43     27       1.000           30.00    
   4358      1     43     28       1.000           30.00    
   4359      1     43     29       1.000           30.00    
   4360      1     43     30       1.000           30.00    
   4361      1     43     31       1.000           30.00    
   4362      1     43     32       1.000           30.00    
   4363      1     43     51       1.000           30.00    
   4364      1     43     68       1.000           30.00    
   4365      1     43    117       1.000           30.00    
   4366      1     43    118       1.000           30.00    
   4367      1     43    119       1.000           30.00    
   4368      1     43    120       1.000           30.00    
   4369      1     43    121       1.000           30.00    
   4370      1     43    122       1.000           30.00    
   4371      1     43    123       1.000           30.00    
   4372      1     43    124       1.000           30.00    
   4373      1     43    125       1.000           30.00    
   4374      1     43    126       1.000           30.00    
   4375      1     43    127       1.000           30.00    
   4376      1     43    128       1.000           30.00    
   4377      1     43    129       1.000           30.00    
   4378      1     43    130       1.000           30.00    
   4379      1     43    131       1.000           30.00    
   4380      1     43    132       1.000           30.00    
   4381      1     43    133       1.000           30.00    
   4382      1     43    134       1.000           30.00    
   4383      1     43    135       1.000           30.00    
   4384      1     43    136       1.000           30.00    
   4385      1     43    137       1.000           30.00    
   4386      1     43    138       1.000           30.00    
   4387      1     43    139       1.000           30.00    
   4388      1     43    140       1.000           30.00    
   4389      1     43    141       1.000           30.00    
   4390      1     43    142       1.000           30.00    
   4391      1     43    143       1.000           30.00    
   4392      1     43    144       1.000           30.00    
   4393      1     43    145       1.000           30.00    
   4394      1     43    146       1.000           30.00    
   4395      1     43    147       1.000           30.00    
   4396      1     43    148       1.000           30.00    
   4397      1     43    149       1.000           30.00    
   4398      1     43    150       1.000           30.00    
   4399      1     43    151       1.000           30.00    
   4400      1     43    152       1.000           30.00    
   4401      1     43    153       1.000           30.00    
   4402      1     43    154       1.000           30.00    
   4403      1     43    155       1.000           30.00    
   4404      1     43    156       1.000           30.00    
   4405      1     43    157       1.000           30.00    
   4406      1     43    158       1.000           30.00    
   4407      1     43    159       1.000           30.00    
   4408      1     43    160       1.000           30.00    
   4409      1     43    161       1.000           30.00    
   4410      1     43    162       1.000           30.00    
   4411      1     43    163       1.000           30.00    
   4412      1     43    164       1.000           30.00    
   4413      1     43    165       1.000           30.00    
   4414      1     43    166       1.000           30.00    
   4415      1     43    167       1.000           30.00    
   4416      1     43    168       1.000           30.00    
   4417      1     43    169       1.000           30.00    
   4418      1     43    170       1.000           30.00    
   4419      1     43    171       1.000           30.00    
   4420      1     43    172       1.000           30.00    
   4421      1     43    173       1.000           30.00    
   4422      1     43    174       1.000           30.00    
   4423      1     43    175       1.000           30.00    
   4424      1     43    176       1.000           30.00    
   4425      1     43    177       1.000           30.00    
   4426      1     43    178       1.000           30.00    
   4427      1     43    179       1.000           30.00    
   4428      1     43    180       1.000           30.00    
   4429      1     43    181       1.000           30.00    
   4430      1     43    182       1.000           30.00    
   4431      1     43    183       1.000           30.00    
   4432      1     43    184       1.000           30.00    
   4433      1     43    185       1.000           30.00    
   4434      1     43    186       1.000           30.00    
   4435      1     43    187       1.000           30.00    
   4436      1     43    188       1.000           30.00    
   4437      1     43    189       1.000           30.00    
   4438      1     43    190       1.000           30.00    
   4439      1     43    191       1.000           30.00    
   4440      1     43    192       1.000           30.00    
   4441      1     43    193       1.000           30.00    
   4442      1     43    194       1.000           30.00    
   4443      1     43    195       1.000           30.00    
   4444      1     43    196       1.000           30.00    
   4445      1     43    197       1.000           30.00    
   4446      1     43    198       1.000           30.00    
   4447      1     43    199       1.000           30.00    
   4448      1     44      2       1.000           30.00    
   4449      1     44      3       1.000           30.00    
   4450      1     44      4       1.000           30.00    
   4451      1     44      5       1.000           30.00    
   4452      1     44      6       1.000           30.00    
   4453      1     44      7       1.000           30.00    
   4454      1     44      8       1.000           30.00    
   4455      1     44      9       1.000           30.00    
   4456      1     44     10       1.000           30.00    
   4457      1     44     11       1.000           30.00    
   4458      1     44     12       1.000           30.00    
   4459      1     44     13       1.000           30.00    
   4460      1     44     14       1.000           30.00    
   4461      1     44     15       1.000           30.00    
   4462      1     44     16       1.000           30.00    
   4463      1     44     17       1.000           30.00    
   4464      1     44     18       1.000           30.00    
   4465      1     44     19       1.000           30.00    
   4466      1     44     20       1.000           30.00    
   4467      1     44     21       1.000           30.00    
   4468      1     44     22       1.000           30.00    
   4469      1     44     23       1.000           30.00    
   4470      1     44     24       1.000           30.00    
   4471      1     44     25       1.000           30.00    
   4472      1     44     26       1.000           30.00    
   4473      1     44     27       1.000           30.00    
   4474      1     44     28       1.000           30.00    
   4475      1     44     29       1.000           30.00    
   4476      1     44     30       1.000           30.00    
   4477      1     44     31       1.000           30.00    
   4478      1     44     68       1.000           30.00    
   4479      1     44    117       1.000           30.00    
   4480      1     44    118       1.000           30.00    
   4481      1     44    119       1.000           30.00    
   4482      1     44    120       1.000           30.00    
   4483      1     44    121       1.000           30.00    
   4484      1     44    122       1.000           30.00    
   4485      1     44    123       1.000           30.00    
   4486      1     44    124       1.000           30.00    
   4487      1     44    125       1.000           30.00    
   4488      1     44    126       1.000           30.00    
   4489      1     44    127       1.000           30.00    
   4490      1     44    128       1.000           30.00    
   4491      1     44    129       1.000           30.00    
   4492      1     44    130       1.000           30.00    
   4493      1     44    131       1.000           30.00    
   4494      1     44    132       1.000           30.00    
   4495      1     44    133       1.000           30.00    
   4496      1     44    134       1.000           30.00    
   4497      1     44    135       1.000           30.00    
   4498      1     44    136       1.000           30.00    
   4499      1     44    137       1.000           30.00    
   4500      1     44    138       1.000           30.00    
   4501      1     44    139       1.000           30.00    
   4502      1     44    140       1.000           30.00    
   4503      1     44    141       1.000           30.00    
   4504      1     44    142       1.000           30.00    
   4505      1     44    143       1.000           30.00    
   4506      1     44    144       1.000           30.00    
   4507      1     44    145       1.000           30.00    
   4508      1     44    146       1.000           30.00    
   4509      1     44    147       1.000           30.00    
   4510      1     44    148       1.000           30.00    
   4511      1     44    149       1.000           30.00    
   4512      1     44    150       1.000           30.00    
   4513      1     44    151       1.000           30.00    
   4514      1     44    152       1.000           30.00    
   4515      1     44    153       1.000           30.00    
   4516      1     44    154       1.000           30.00    
   4517      1     44    155       1.000           30.00    
   4518      1     44    156       1.000           30.00    
   4519      1     44    157       1.000           30.00    
   4520      1     44    158       1.000           30.00    
   4521      1     44    159       1.000           30.00    
   4522      1     44    160       1.000           30.00    
   4523      1     44    161       1.000           30.00    
   4524      1     44    162       1.000           30.00    
   4525      1     44    163       1.000           30.00    
   4526      1     44    164       1.000           30.00    
   4527      1     44    165       1.000           30.00    
   4528      1     44    166       1.000           30.00    
   4529      1     44    167       1.000           30.00    
   4530      1     44    168       1.000           30.00    
   4531      1     44    169       1.000           30.00    
   4532      1     44    170       1.000           30.00    
   4533      1     44    171       1.000           30.00    
   4534      1     44    172       1.000           30.00    
   4535      1     44    173       1.000           30.00    
   4536      1     44    174       1.000           30.00    
   4537      1     44    175       1.000           30.00    
   4538      1     44    176       1.000           30.00    
   4539      1     44    177       1.000           30.00    
   4540      1     44    178       1.000           30.00    
   4541      1     44    179       1.000           30.00    
   4542      1     44    180       1.000           30.00    
   4543      1     44    181       1.000           30.00    
   4544      1     44    182       1.000           30.00    
   4545      1     44    183       1.000           30.00    
   4546      1     44    184       1.000           30.00    
   4547      1     44    185       1.000           30.00    
   4548      1     44    186       1.000           30.00    
   4549      1     44    187       1.000           30.00    
   4550      1     44    188       1.000           30.00    
   4551      1     44    189       1.000           30.00    
   4552      1     44    190       1.000           30.00    
   4553      1     44    191       1.000           30.00    
   4554      1     44    192       1.000           30.00    
   4555      1     44    193       1.000           30.00    
   4556      1     44    194       1.000           30.00    
   4557      1     44    195       1.000           30.00    
   4558      1     44    196       1.000           30.00    
   4559      1     44    197       1.000           30.00    
   4560      1     44    198       1.000           30.00    
   4561      1     45      2       1.000           30.00    
   4562      1     45      3       1.000           30.00    
   4563      1     45      4       1.000           30.00    
   4564      1     45      5       1.000           30.00    
   4565      1     45      6       1.000           30.00    
   4566      1     45      7       1.000           30.00    
   4567      1     45      8       1.000           30.00    
   4568      1     45      9       1.000           30.00    
   4569      1     45     10       1.000           30.00    
   4570      1     45     11       1.000           30.00    
   4571      1     45     12       1.000           30.00    
   4572      1     45     13       1.000           30.00    
   4573      1     45     14       1.000           30.00    
   4574      1     45     15       1.000           30.00    
   4575      1     45     16       1.000           30.00    
   4576      1     45     17       1.000           30.00    
   4577      1     45     18       1.000           30.00    
   4578      1     45     19       1.000           30.00    
   4579      1     45     20       1.000           30.00    
   4580      1     45     21       1.000           30.00    
   4581      1     45     22       1.000           30.00    
   4582      1     45     23       1.000           30.00    
   4583      1     45     24       1.000           30.00    
   4584      1     45     25       1.000           30.00    
   4585      1     45     26       1.000           30.00    
   4586      1     45     27       1.000           30.00    
   4587      1     45     28       1.000           30.00    
   4588      1     45     29       1.000           30.00    
   4589      1     45     30       1.000           30.00    
   4590      1     45     31       1.000           30.00    
   4591      1     45    116       1.000           30.00    
   4592      1     45    117       1.000           30.00    
   4593      1     45    118       1.000           30.00    
   4594      1     45    119       1.000           30.00    
   4595      1     45    120       1.000           30.00    
   4596      1     45    121       1.000           30.00    
   4597      1     45    122       1.000           30.00    
   4598      1     45    123       1.000           30.00    
   4599      1     45    124       1.000           30.00    
   4600      1     45    125       1.000           30.00    
   4601      1     45    126       1.000           30.00    
   4602      1     45    127       1.000           30.00    
   4603      1     45    128       1.000           30.00    
   4604      1     45    129       1.000           30.00    
   4605      1     45    130       1.000           30.00    
   4606      1     45    131       1.000           30.00    
   4607      1     45    132       1.000           30.00    
   4608      1     45    133       1.000           30.00    
   4609      1     45    134       1.000           30.00    
   4610      1     45    135       1.000           30.00    
   4611      1     45    136       1.000           30.00    
   4612      1     45    137       1.000           30.00    
   4613      1     45    138       1.000           30.00    
   4614      1     45    139       1.000           30.00    
   4615      1     45    140       1.000           30.00    
   4616      1     45    141       1.000           30.00    
   4617      1     45    142       1.000           30.00    
   4618      1     45    143       1.000           30.00    
   4619      1     45    144       1.000           30.00    
   4620      1     45    145       1.000           30.00    
   4621      1     45    146       1.000           30.00    
   4622      1     45    147       1.000           30.00    
   4623      1     45    148       1.000           30.00    
   4624      1     45    149       1.000           30.00    
   4625      1     45    150       1.000           30.00    
   4626      1     45    151       1.000           30.00    
   4627      1     45    152       1.000           30.00    
   4628      1     45    153       1.000           30.00    
   4629      1     45    154       1.000           30.00    
   4630      1     45    155       1.000           30.00    
   4631      1     45    156       1.000           30.00    
   4632      1     45    157       1.000           30.00    
   4633      1     45    158       1.000           30.00    
   4634      1     45    159       1.000           30.00    
   4635      1     45    160       1.000           30.00    
   4636      1     45    161       1.000           30.00    
   4637      1     45    162       1.000           30.00    
   4638      1     45    163       1.000           30.00    
   4639      1     45    164       1.000           30.00    
   4640      1     45    165       1.000           30.00    
   4641      1     45    166       1.000           30.00    
   4642      1     45    167       1.000           30.00    
   4643      1     45    168       1.000           30.00    
   4644      1     45    169       1.000           30.00    
   4645      1     45    170       1.000           30.00    
   4646      1     45    171       1.000           30.00    
   4647      1     45    172       1.000           30.00    
   4648      1     45    173       1.000           30.00    
   4649      1     45    174       1.000           30.00    
   4650      1     45    175       1.000           30.00    
   4651      1     45    176       1.000           30.00    
   4652      1     45    177       1.000           30.00    
   4653      1     45    178       1.000           30.00    
   4654      1     45    179       1.000           30.00    
   4655      1     45    180       1.000           30.00    
   4656      1     45    181       1.000           30.00    
   4657      1     45    182       1.000           30.00    
   4658      1     45    183       1.000           30.00    
   4659      1     45    184       1.000           30.00    
   4660      1     45    185       1.000           30.00    
   4661      1     45    186       1.000           30.00    
   4662      1     45    187       1.000           30.00    
   4663      1     45    188       1.000           30.00    
   4664      1     45    189       1.000           30.00    
   4665      1     45    190       1.000           30.00    
   4666      1     45    191       1.000           30.00    
   4667      1     45    192       1.000           30.00    
   4668      1     45    193       1.000           30.00    
   4669      1     45    194       1.000           30.00    
   4670      1     45    195       1.000           30.00    
   4671      1     45    196       1.000           30.00    
   4672      1     45    197       1.000           30.00    
   4673      1     46      2       1.000           30.00    
   4674      1     46      3       1.000           30.00    
   4675      1     46      4       1.000           30.00    
   4676      1     46      5       1.000           30.00    
   4677      1     46      6       1.000           30.00    
   4678      1     46      7       1.000           30.00    
   4679      1     46      8       1.000           30.00    
   4680      1     46      9       1.000           30.00    
   4681      1     46     10       1.000           30.00    
   4682      1     46     11       1.000           30.00    
   4683      1     46     12       1.000           30.00    
   4684      1     46     13       1.000           30.00    
   4685      1     46     14       1.000           30.00    
   4686      1     46     15       1.000           30.00    
   4687      1     46     16       1.000           30.00    
   4688      1     46     17       1.000           30.00    
   4689      1     46     18       1.000           30.00    
   4690      1     46     19       1.000           30.00    
   4691      1     46     20       1.000           30.00    
   4692      1     46     21       1.000           30.00    
   4693      1     46     22       1.000           30.00    
   4694      1     46     23       1.000           30.00    
   4695      1     46     24       1.000           30.00    
   4696      1     46     25       1.000           30.00    
   4697      1     46     26       1.000           30.00    
   4698      1     46     27       1.000           30.00    
   4699      1     46     28       1.000           30.00    
   4700      1     46     29       1.000           30.00    
   4701      1     46     30       1.000           30.00    
   4702      1     46    113       1.000           30.00    
   4703      1     46    116       1.000           30.00    
   4704      1     46    117       1.000           30.00    
   4705      1     46    118       1.000           30.00    
   4706      1     46    119       1.000           30.00    
   4707      1     46    120       1.000           30.00    
   4708      1     46    121       1.000           30.00    
   4709      1     46    122       1.000           30.00    
   4710      1     46    123       1.000           30.00    
   4711      1     46    124       1.000           30.00    
   4712      1     46    125       1.000           30.00    
   4713      1     46    126       1.000           30.00    
   4714      1     46    127       1.000           30.00    
   4715      1     46    128       1.000           30.00    
   4716      1     46    129       1.000           30.00    
   4717      1     46    130       1.000           30.00    
   4718      1     46    131       1.000           30.00    
   4719      1     46    132       1.000           30.00    
   4720      1     46    133       1.000           30.00    
   4721      1     46    134       1.000           30.00    
   4722      1     46    135       1.000           30.00    
   4723      1     46    136       1.000           30.00    
   4724      1     46    137       1.000           30.00    
   4725      1     46    138       1.000           30.00    
   4726      1     46    139       1.000           30.00    
   4727      1     46    140       1.000           30.00    
   4728      1     46    141       1.000           30.00    
   4729      1     46    142       1.000           30.00    
   4730      1     46    143       1.000           30.00    
   4731      1     46    144       1.000           30.00    
   4732      1     46    145       1.000           30.00    
   4733      1     46    146       1.000           30.00    
   4734      1     46    147       1.000           30.00    
   4735      1     46    148       1.000           30.00    
   4736      1     46    149       1.000           30.00    
   4737      1     46    150       1.000           30.00    
   4738      1     46    151       1.000           30.00    
   4739      1     46    152       1.000           30.00    
   4740      1     46    153       1.000           30.00    
   4741      1     46    154       1.000           30.00    
   4742      1     46    155       1.000           30.00    
   4743      1     46    156       1.000           30.00    
   4744      1     46    157       1.000           30.00    
   4745      1     46    158       1.000           30.00    
   4746      1     46    159       1.000           30.00    
   4747      1     46    160       1.000           30.00    
   4748      1     46    161       1.000           30.00    
   4749      1     46    162       1.000           30.00    
   4750      1     46    163       1.000           30.00    
   4751      1     46    164       1.000           30.00    
   4752      1     46    165       1.000           30.00    
   4753      1     46    166       1.000           30.00    
   4754      1     46    167       1.000           30.00    
   4755      1     46    168       1.000           30.00    
   4756      1     46    169       1.000           30.00    
   4757      1     46    170       1.000           30.00    
   4758      1     46    171       1.000           30.00    
   4759      1     46    172       1.000           30.00    
   4760      1     46    173       1.000           30.00    
   4761      1     46    174       1.000           30.00    
   4762      1     46    175       1.000           30.00    
   4763      1     46    176       1.000           30.00    
   4764      1     46    177       1.000           30.00    
   4765      1     46    178       1.000           30.00    
   4766      1     46    179       1.000           30.00    
   4767      1     46    180       1.000           30.00    
   4768      1     46    181       1.000           30.00    
   4769      1     46    182       1.000           30.00    
   4770      1     46    183       1.000           30.00    
   4771      1     46    184       1.000           30.00    
   4772      1     46    185       1.000           30.00    
   4773      1     46    186       1.000           30.00    
   4774      1     46    187       1.000           30.00    
   4775      1     46    188       1.000           30.00    
   4776      1     46    189       1.000           30.00    
   4777      1     46    190       1.000           30.00    
   4778      1     46    191       1.000           30.00    
   4779      1     46    192       1.000           30.00    
   4780      1     46    193       1.000           30.00    
   4781      1     46    194       1.000           30.00    
   4782      1     46    195       1.000           30.00    
   4783      1     46    196       1.000           30.00    
   4784      1     47      2       1.000           30.00    
   4785      1     47      3       1.000           30.00    
   4786      1     47      4       1.000           30.00    
   4787      1     47      5       1.000           30.00    
   4788      1     47      6       1.000           30.00    
   4789      1     47      7       1.000           30.00    
   4790      1     47      8       1.000           30.00    
   4791      1     47      9       1.000           30.00    
   4792      1     47     10       1.000           30.00    
   4793      1     47     11       1.000           30.00    
   4794      1     47     12       1.000           30.00    
   4795      1     47     13       1.000           30.00    
   4796      1     47     14       1.000           30.00    
   4797      1     47     15       1.000           30.00    
   4798      1     47     16       1.000           30.00    
   4799      1     47     17       1.000           30.00    
   4800      1     47     18       1.000           30.00    
   4801      1     47     19       1.000           30.00    
   4802      1     47     20       1.000           30.00    
   4803      1     47     21       1.000           30.00    
   4804      1     47     22       1.000           30.00    
   4805      1     47     23       1.000           30.00    
   4806      1     47     24       1.000           30.00    
   4807      1     47     26       1.000           30.00    
   4808      1     47     27       1.000           30.00    
   4809      1     47     28       1.000           30.00    
   4810      1     47    112       1.000           30.00    
   4811      1     47    113       1.000           30.00    
   4812      1     47    114       1.000           30.00    
   4813      1     47    115       1.000           30.00    
   4814      1     47    116       1.000           30.00    
   4815      1     47    117       1.000           30.00    
   4816      1     47    118       1.000           30.00    
   4817      1     47    119       1.000           30.00    
   4818      1     47    120       1.000           30.00    
   4819      1     47    121       1.000           30.00    
   4820      1     47    122       1.000           30.00    
   4821      1     47    123       1.000           30.00    
   4822      1     47    124       1.000           30.00    
   4823      1     47    125       1.000           30.00    
   4824      1     47    126       1.000           30.00    
   4825      1     47    127       1.000           30.00    
   4826      1     47    128       1.000           30.00    
   4827      1     47    129       1.000           30.00    
   4828      1     47    130       1.000           30.00    
   4829      1     47    131       1.000           30.00    
   4830      1     47    132       1.000           30.00    
   4831      1     47    133       1.000           30.00    
   4832      1     47    134       1.000           30.00    
   4833      1     47    135       1.000           30.00    
   4834      1     47    136       1.000           30.00    
   4835      1     47    137       1.000           30.00    
   4836      1     47    138       1.000           30.00    
   4837      1     47    139       1.000           30.00    
   4838      1     47    140       1.000           30.00    
   4839      1     47    141       1.000           30.00    
   4840      1     47    142       1.000           30.00    
   4841      1     47    143       1.000           30.00    
   4842      1     47    144       1.000           30.00    
   4843      1     47    145       1.000           30.00    
   4844      1     47    146       1.000           30.00    
   4845      1     47    147       1.000           30.00    
   4846      1     47    148       1.000           30.00    
   4847      1     47    149       1.000           30.00    
   4848      1     47    150       1.000           30.00    
   4849      1     47    151       1.000           30.00    
   4850      1     47    152       1.000           30.00    
   4851      1     47    153       1.000           30.00    
   4852      1     47    154       1.000           30.00    
   4853      1     47    155       1.000           30.00    
   4854      1     47    156       1.000           30.00    
   4855      1     47    157       1.000           30.00    
   4856      1     47    158       1.000           30.00    
   4857      1     47    159       1.000           30.00    
   4858      1     47    160       1.000           30.00    
   4859      1     47    161       1.000           30.00    
   4860      1     47    162       1.000           30.00    
   4861      1     47    163       1.000           30.00    
   4862      1     47    164       1.000           30.00    
   4863      1     47    165       1.000           30.00    
   4864      1     47    166       1.000           30.00    
   4865      1     47    167       1.000           30.00    
   4866      1     47    168       1.000           30.00    
   4867      1     47    169       1.000           30.00    
   4868      1     47    170       1.000           30.00    
   4869      1     47    171       1.000           30.00    
   4870      1     47    172       1.000           30.00    
   4871      1     47    173       1.000           30.00    
   4872      1     47    174       1.000           30.00    
   4873      1     47    175       1.000           30.00    
   4874      1     47    176       1.000           30.00    
   4875      1     47    177       1.000           30.00    
   4876      1     47    178       1.000           30.00    
   4877      1     47    179       1.000           30.00    
   4878      1     47    180       1.000           30.00    
   4879      1     47    181       1.000           30.00    
   4880      1     47    182       1.000           30.00    
   4881      1     47    183       1.000           30.00    
   4882      1     47    184       1.000           30.00    
   4883      1     47    185       1.000           30.00    
   4884      1     47    186       1.000           30.00    
   4885      1     47    187       1.000           30.00    
   4886      1     47    188       1.000           30.00    
   4887      1     47    189       1.000           30.00    
   4888      1     47    190       1.000           30.00    
   4889      1     47    191       1.000           30.00    
   4890      1     47    192       1.000           30.00    
   4891      1     47    193       1.000           30.00    
   4892      1     47    194       1.000           30.00    
   4893      1     48      2       1.000           30.00    
   4894      1     48      3       1.000           30.00    
   4895      1     48      4       1.000           30.00    
   4896      1     48      5       1.000           30.00    
   4897      1     48      6       1.000           30.00    
   4898      1     48      7       1.000           30.00    
   4899      1     48      8       1.000           30.00    
   4900      1     48      9       1.000           30.00    
   4901      1     48     10       1.000           30.00    
   4902      1     48     11       1.000           30.00    
   4903      1     48     12       1.000           30.00    
   4904      1     48     13       1.000           30.00    
   4905      1     48     14       1.000           30.00    
   4906      1     48     15       1.000           30.00    
   4907      1     48     16       1.000           30.00    
   4908      1     48     17       1.000           30.00    
   4909      1     48     18       1.000           30.00    
   4910      1     48     19       1.000           30.00    
   4911      1     48     20       1.000           30.00    
   4912      1     48     21       1.000           30.00    
   4913      1     48     22       1.000           30.00    
   4914      1     48     23       1.000           30.00    
   4915      1     48     26       1.000           30.00    
   4916      1     48     27       1.000           30.00    
   4917      1     48    109       1.000           30.00    
   4918      1     48    110       1.000           30.00    
   4919      1     48    111       1.000           30.00    
   4920      1     48    112       1.000           30.00    
   4921      1     48    113       1.000           30.00    
   4922      1     48    114       1.000           30.00    
   4923      1     48    115       1.000           30.00    
   4924      1     48    116       1.000           30.00    
   4925      1     48    117       1.000           30.00    
   4926      1     48    118       1.000           30.00    
   4927      1     48    119       1.000           30.00    
   4928      1     48    120       1.000           30.00    
   4929      1     48    121       1.000           30.00    
   4930      1     48    122       1.000           30.00    
   4931      1     48    123       1.000           30.00    
   4932      1     48    124       1.000           30.00    
   4933      1     48    125       1.000           30.00    
   4934      1     48    126       1.000           30.00    
   4935      1     48    127       1.000           30.00    
   4936      1     48    128       1.000           30.00    
   4937      1     48    129       1.000           30.00    
   4938      1     48    130       1.000           30.00    
   4939      1     48    131       1.000           30.00    
   4940      1     48    132       1.000           30.00    
   4941      1     48    133       1.000           30.00    
   4942      1     48    134       1.000           30.00    
   4943      1     48    135       1.000           30.00    
   4944      1     48    136       1.000           30.00    
   4945      1     48    137       1.000           30.00    
   4946      1     48    138       1.000           30.00    
   4947      1     48    139       1.000           30.00    
   4948      1     48    140       1.000           30.00    
   4949      1     48    141       1.000           30.00    
   4950      1     48    142       1.000           30.00    
   4951      1     48    143       1.000           30.00    
   4952      1     48    144       1.000           30.00    
   4953      1     48    145       1.000           30.00    
   4954      1     48    146       1.000           30.00    
   4955      1     48    147       1.000           30.00    
   4956      1     48    148       1.000           30.00    
   4957      1     48    149       1.000           30.00    
   4958      1     48    150       1.000           30.00    
   4959      1     48    151       1.000           30.00    
   4960      1     48    152       1.000           30.00    
   4961      1     48    153       1.000           30.00    
   4962      1     48    154       1.000           30.00    
   4963      1     48    155       1.000           30.00    
   4964      1     48    156       1.000           30.00    
   4965      1     48    157       1.000           30.00    
   4966      1     48    158       1.000           30.00    
   4967      1     48    159       1.000           30.00    
   4968      1     48    160       1.000           30.00    
   4969      1     48    161       1.000           30.00    
   4970      1     48    162       1.000           30.00    
   4971      1     48    163       1.000           30.00    
   4972      1     48    164       1.000           30.00    
   4973      1     48    165       1.000           30.00    
   4974      1     48    166       1.000           30.00    
   4975      1     48    167       1.000           30.00    
   4976      1     48    168       1.000           30.00    
   4977      1     48    169       1.000           30.00    
   4978      1     48    170       1.000           30.00    
   4979      1     48    171       1.000           30.00    
   4980      1     48    172       1.000           30.00    
   4981      1     48    173       1.000           30.00    
   4982      1     48    174       1.000           30.00    
   4983      1     48    175       1.000           30.00    
   4984      1     48    176       1.000           30.00    
   4985      1     48    177       1.000           30.00    
   4986      1     48    178       1.000           30.00    
   4987      1     48    179       1.000           30.00    
   4988      1     48    180       1.000           30.00    
   4989      1     48    181       1.000           30.00    
   4990      1     48    182       1.000           30.00    
   4991      1     48    183       1.000           30.00    
   4992      1     48    184       1.000           30.00    
   4993      1     48    185       1.000           30.00    
   4994      1     48    186       1.000           30.00    
   4995      1     48    187       1.000           30.00    
   4996      1     48    188       1.000           30.00    
   4997      1     48    189       1.000           30.00    
   4998      1     48    190       1.000           30.00    
   4999      1     48    191       1.000           30.00    
   5000      1     48    192       1.000           30.00    
   5001      1     48    193       1.000           30.00    
   5002      1     49      2       1.000           30.00    
   5003      1     49      3       1.000           30.00    
   5004      1     49      4       1.000           30.00    
   5005      1     49      5       1.000           30.00    
   5006      1     49      6       1.000           30.00    
   5007      1     49      7       1.000           30.00    
   5008      1     49      8       1.000           30.00    
   5009      1     49      9       1.000           30.00    
   5010      1     49     10       1.000           30.00    
   5011      1     49     11       1.000           30.00    
   5012      1     49     12       1.000           30.00    
   5013      1     49     13       1.000           30.00    
   5014      1     49     14       1.000           30.00    
   5015      1     49     15       1.000           30.00    
   5016      1     49     16       1.000           30.00    
   5017      1     49     17       1.000           30.00    
   5018      1     49     18       1.000           30.00    
   5019      1     49     19       1.000           30.00    
   5020      1     49     20       1.000           30.00    
   5021      1     49     21       1.000           30.00    
   5022      1     49     22       1.000           30.00    
   5023      1     49     27       1.000           30.00    
   5024      1     49    109       1.000           30.00    
   5025      1     49    110       1.000           30.00    
   5026      1     49    111       1.000           30.00    
   5027      1     49    112       1.000           30.00    
   5028      1     49    113       1.000           30.00    
   5029      1     49    114       1.000           30.00    
   5030      1     49    115       1.000           30.00    
   5031      1     49    116       1.000           30.00    
   5032      1     49    117       1.000           30.00    
   5033      1     49    118       1.000           30.00    
   5034      1     49    119       1.000           30.00    
   5035      1     49    120       1.000           30.00    
   5036      1     49    121       1.000           30.00    
   5037      1     49    122       1.000           30.00    
   5038      1     49    123       1.000           30.00    
   5039      1     49    124       1.000           30.00    
   5040      1     49    125       1.000           30.00    
   5041      1     49    126       1.000           30.00    
   5042      1     49    127       1.000           30.00    
   5043      1     49    128       1.000           30.00    
   5044      1     49    129       1.000           30.00    
   5045      1     49    130       1.000           30.00    
   5046      1     49    131       1.000           30.00    
   5047      1     49    132       1.000           30.00    
   5048      1     49    133       1.000           30.00    
   5049      1     49    134       1.000           30.00    
   5050      1     49    135       1.000           30.00    
   5051      1     49    136       1.000           30.00    
   5052      1     49    137       1.000           30.00    
   5053      1     49    138       1.000           30.00    
   5054      1     49    139       1.000           30.00    
   5055      1     49    140       1.000           30.00    
   5056      1     49    141       1.000           30.00    
   5057      1     49    142       1.000           30.00    
   5058      1     49    143       1.000           30.00    
   5059      1     49    144       1.000           30.00    
   5060      1     49    145       1.000           30.00    
   5061      1     49    146       1.000           30.00    
   5062      1     49    147       1.000           30.00    
   5063      1     49    148       1.000           30.00    
   5064      1     49    149       1.000           30.00    
   5065      1     49    150       1.000           30.00    
   5066      1     49    151       1.000           30.00    
   5067      1     49    152       1.000           30.00    
   5068      1     49    153       1.000           30.00    
   5069      1     49    154       1.000           30.00    
   5070      1     49    155       1.000           30.00    
   5071      1     49    156       1.000           30.00    
   5072      1     49    157       1.000           30.00    
   5073      1     49    158       1.000           30.00    
   5074      1     49    159       1.000           30.00    
   5075      1     49    160       1.000           30.00    
   5076      1     49    161       1.000           30.00    
   5077      1     49    162       1.000           30.00    
   5078      1     49    163       1.000           30.00    
   5079      1     49    164       1.000           30.00    
   5080      1     49    165       1.000           30.00    
   5081      1     49    166       1.000           30.00    
   5082      1     49    167       1.000           30.00    
   5083      1     49    168       1.000           30.00    
   5084      1     49    169       1.000           30.00    
   5085      1     49    170       1.000           30.00    
   5086      1     49    171       1.000           30.00    
   5087      1     49    172       1.000           30.00    
   5088      1     49    173       1.000           30.00    
   5089      1     49    174       1.000           30.00    
   5090      1     49    175       1.000           30.00    
   5091      1     49    176       1.000           30.00    
   5092      1     49    177       1.000           30.00    
   5093      1     49    178       1.000           30.00    
   5094      1     49    179       1.000           30.00    
   5095      1     49    180       1.000           30.00    
   5096      1     49    181       1.000           30.00    
   5097      1     49    182       1.000           30.00    
   5098      1     49    183       1.000           30.00    
   5099      1     49    184       1.000           30.00    
   5100      1     49    185       1.000           30.00    
   5101      1     49    186       1.000           30.00    
   5102      1     49    187       1.000           30.00    
   5103      1     49    188       1.000           30.00    
   5104      1     49    189       1.000           30.00    
   5105      1     49    190       1.000           30.00    
   5106      1     49    191       1.000           30.00    
   5107      1     49    192       1.000           30.00    
   5108      1     50      2       1.000           30.00    
   5109      1     50      3       1.000           30.00    
   5110      1     50      4       1.000           30.00    
   5111      1     50      5       1.000           30.00    
   5112      1     50      6       1.000           30.00    
   5113      1     50      7       1.000           30.00    
   5114      1     50      8       1.000           30.00    
   5115      1     50      9       1.000           30.00    
   5116      1     50     10       1.000           30.00    
   5117      1     50     11       1.000           30.00    
   5118      1     50     12       1.000           30.00    
   5119      1     50     13       1.000           30.00    
   5120      1     50     14       1.000           30.00    
   5121      1     50     15       1.000           30.00    
   5122      1     50     16       1.000           30.00    
   5123      1     50     17       1.000           30.00    
   5124      1     50     18       1.000           30.00    
   5125      1     50     19       1.000           30.00    
   5126      1     50     20       1.000           30.00    
   5127      1     50     21       1.000           30.00    
   5128      1     50    109       1.000           30.00    
   5129      1     50    110       1.000           30.00    
   5130      1     50    111       1.000           30.00    
   5131      1     50    112       1.000           30.00    
   5132      1     50    113       1.000           30.00    
   5133      1     50    114       1.000           30.00    
   5134      1     50    115       1.000           30.00    
   5135      1     50    116       1.000           30.00    
   5136      1     50    117       1.000           30.00    
   5137      1     50    118       1.000           30.00    
   5138      1     50    119       1.000           30.00    
   5139      1     50    120       1.000           30.00    
   5140      1     50    121       1.000           30.00    
   5141      1     50    122       1.000           30.00    
   5142      1     50    123       1.000           30.00    
   5143      1     50    124       1.000           30.00    
   5144      1     50    125       1.000           30.00    
   5145      1     50    126       1.000           30.00    
   5146      1     50    127       1.000           30.00    
   5147      1     50    128       1.000           30.00    
   5148      1     50    129       1.000           30.00    
   5149      1     50    130       1.000           30.00    
   5150      1     50    131       1.000           30.00    
   5151      1     50    132       1.000           30.00    
   5152      1     50    133       1.000           30.00    
   5153      1     50    134       1.000           30.00    
   5154      1     50    135       1.000           30.00    
   5155      1     50    136       1.000           30.00    
   5156      1     50    137       1.000           30.00    
   5157      1     50    138       1.000           30.00    
   5158      1     50    139       1.000           30.00    
   5159      1     50    140       1.000           30.00    
   5160      1     50    141       1.000           30.00    
   5161      1     50    142       1.000           30.00    
   5162      1     50    143       1.000           30.00    
   5163      1     50    144       1.000           30.00    
   5164      1     50    145       1.000           30.00    
   5165      1     50    146       1.000           30.00    
   5166      1     50    147       1.000           30.00    
   5167      1     50    148       1.000           30.00    
   5168      1     50    149       1.000           30.00    
   5169      1     50    150       1.000           30.00    
   5170      1     50    151       1.000           30.00    
   5171      1     50    152       1.000           30.00    
   5172      1     50    153       1.000           30.00    
   5173      1     50    154       1.000           30.00    
   5174      1     50    155       1.000           30.00    
   5175      1     50    156       1.000           30.00    
   5176      1     50    157       1.000           30.00    
   5177      1     50    158       1.000           30.00    
   5178      1     50    159       1.000           30.00    
   5179      1     50    160       1.000           30.00    
   5180      1     50    161       1.000           30.00    
   5181      1     50    162       1.000           30.00    
   5182      1     50    163       1.000           30.00    
   5183      1     50    164       1.000           30.00    
   5184      1     50    165       1.000           30.00    
   5185      1     50    166       1.000           30.00    
   5186      1     50    167       1.000           30.00    
   5187      1     50    168       1.000           30.00    
   5188      1     50    169       1.000           30.00    
   5189      1     50    170       1.000           30.00    
   5190      1     50    171       1.000           30.00    
   5191      1     50    172       1.000           30.00    
   5192      1     50    173       1.000           30.00    
   5193      1     50    174       1.000           30.00    
   5194      1     50    175       1.000           30.00    
   5195      1     50    176       1.000           30.00    
   5196      1     50    177       1.000           30.00    
   5197      1     50    178       1.000           30.00    
   5198      1     50    179       1.000           30.00    
   5199      1     50    180       1.000           30.00    
   5200      1     50    181       1.000           30.00    
   5201      1     50    182       1.000           30.00    
   5202      1     50    183       1.000           30.00    
   5203      1     50    184       1.000           30.00    
   5204      1     50    185       1.000           30.00    
   5205      1     50    186       1.000           30.00    
   5206      1     50    187       1.000           30.00    
   5207      1     50    188       1.000           30.00    
   5208      1     50    189       1.000           30.00    
   5209      1     50    190       1.000           30.00    
   5210      1     51      2       1.000           30.00    
   5211      1     51      3       1.000           30.00    
   5212      1     51      4       1.000           30.00    
   5213      1     51      5       1.000           30.00    
   5214      1     51      6       1.000           30.00    
   5215      1     51      7       1.000           30.00    
   5216      1     51      8       1.000           30.00    
   5217      1     51      9       1.000           30.00    
   5218      1     51     10       1.000           30.00    
   5219      1     51     11       1.000           30.00    
   5220      1     51     12       1.000           30.00    
   5221      1     51     13       1.000           30.00    
   5222      1     51     14       1.000           30.00    
   5223      1     51     15       1.000           30.00    
   5224      1     51     16       1.000           30.00    
   5225      1     51     17       1.000           30.00    
   5226      1     51     18       1.000           30.00    
   5227      1     51     19       1.000           30.00    
   5228      1     51     20       1.000           30.00    
   5229      1     51     21       1.000           30.00    
   5230      1     51    106       1.000           30.00    
   5231      1     51    107       1.000           30.00    
   5232      1     51    108       1.000           30.00    
   5233      1     51    109       1.000           30.00    
   5234      1     51    110       1.000           30.00    
   5235      1     51    111       1.000           30.00    
   5236      1     51    112       1.000           30.00    
   5237      1     51    113       1.000           30.00    
   5238      1     51    114       1.000           30.00    
   5239      1     51    115       1.000           30.00    
   5240      1     51    116       1.000           30.00    
   5241      1     51    117       1.000           30.00    
   5242      1     51    118       1.000           30.00    
   5243      1     51    119       1.000           30.00    
   5244      1     51    120       1.000           30.00    
   5245      1     51    121       1.000           30.00    
   5246      1     51    122       1.000           30.00    
   5247      1     51    123       1.000           30.00    
   5248      1     51    124       1.000           30.00    
   5249      1     51    125       1.000           30.00    
   5250      1     51    126       1.000           30.00    
   5251      1     51    127       1.000           30.00    
   5252      1     51    128       1.000           30.00    
   5253      1     51    129       1.000           30.00    
   5254      1     51    130       1.000           30.00    
   5255      1     51    131       1.000           30.00    
   5256      1     51    132       1.000           30.00    
   5257      1     51    133       1.000           30.00    
   5258      1     51    134       1.000           30.00    
   5259      1     51    135       1.000           30.00    
   5260      1     51    136       1.000           30.00    
   5261      1     51    137       1.000           30.00    
   5262      1     51    138       1.000           30.00    
   5263      1     51    139       1.000           30.00    
   5264      1     51    140       1.000           30.00    
   5265      1     51    141       1.000           30.00    
   5266      1     51    142       1.000           30.00    
   5267      1     51    143       1.000           30.00    
   5268      1     51    144       1.000           30.00    
   5269      1     51    145       1.000           30.00    
   5270      1     51    146       1.000           30.00    
   5271      1     51    147       1.000           30.00    
   5272      1     51    148       1.000           30.00    
   5273      1     51    149       1.000           30.00    
   5274      1     51    150       1.000           30.00    
   5275      1     51    152       1.000           30.00    
   5276      1     51    153       1.000           30.00    
   5277      1     51    154       1.000           30.00    
   5278      1     51    155       1.000           30.00    
   5279      1     51    156       1.000           30.00    
   5280      1     51    157       1.000           30.00    
   5281      1     51    158       1.000           30.00    
   5282      1     51    159       1.000           30.00    
   5283      1     51    160       1.000           30.00    
   5284      1     51    161       1.000           30.00    
   5285      1     51    162       1.000           30.00    
   5286      1     51    163       1.000           30.00    
   5287      1     51    164       1.000           30.00    
   5288      1     51    165       1.000           30.00    
   5289      1     51    166       1.000           30.00    
   5290      1     51    167       1.000           30.00    
   5291      1     51    168       1.000           30.00    
   5292      1     51    169       1.000           30.00    
   5293      1     51    170       1.000           30.00    
   5294      1     51    171       1.000           30.00    
   5295      1     51    172       1.000           30.00    
   5296      1     51    173       1.000           30.00    
   5297      1     51    174       1.000           30.00    
   5298      1     51    175       1.000           30.00    
   5299      1     51    176       1.000           30.00    
   5300      1     51    177       1.000           30.00    
   5301      1     51    178       1.000           30.00    
   5302      1     51    179       1.000           30.00    
   5303      1     51    180       1.000           30.00    
   5304      1     51    181       1.000           30.00    
   5305      1     51    182       1.000           30.00    
   5306      1     51    183       1.000           30.00    
   5307      1     51    184       1.000           30.00    
   5308      1     51    185       1.000           30.00    
   5309      1     51    186       1.000           30.00    
   5310      1     51    187       1.000           30.00    
   5311      1     51    188       1.000           30.00    
   5312      1     51    189       1.000           30.00    
   5313      1     52      2       1.000           30.00    
   5314      1     52      3       1.000           30.00    
   5315      1     52      4       1.000           30.00    
   5316      1     52      5       1.000           30.00    
   5317      1     52      6       1.000           30.00    
   5318      1     52      7       1.000           30.00    
   5319      1     52      8       1.000           30.00    
   5320      1     52      9       1.000           30.00    
   5321      1     52     10       1.000           30.00    
   5322      1     52     11       1.000           30.00    
   5323      1     52     12       1.000           30.00    
   5324      1     52     13       1.000           30.00    
   5325      1     52     14       1.000           30.00    
   5326      1     52     15       1.000           30.00    
   5327      1     52     16       1.000           30.00    
   5328      1     52     17       1.000           30.00    
   5329      1     52     18       1.000           30.00    
   5330      1     52     19       1.000           30.00    
   5331      1     52    105       1.000           30.00    
   5332      1     52    106       1.000           30.00    
   5333      1     52    107       1.000           30.00    
   5334      1     52    108       1.000           30.00    
   5335      1     52    109       1.000           30.00    
   5336      1     52    110       1.000           30.00    
   5337      1     52    111       1.000           30.00    
   5338      1     52    112       1.000           30.00    
   5339      1     52    113       1.000           30.00    
   5340      1     52    114       1.000           30.00    
   5341      1     52    115       1.000           30.00    
   5342      1     52    116       1.000           30.00    
   5343      1     52    117       1.000           30.00    
   5344      1     52    118       1.000           30.00    
   5345      1     52    119       1.000           30.00    
   5346      1     52    120       1.000           30.00    
   5347      1     52    121       1.000           30.00    
   5348      1     52    122       1.000           30.00    
   5349      1     52    123       1.000           30.00    
   5350      1     52    124       1.000           30.00    
   5351      1     52    125       1.000           30.00    
   5352      1     52    126       1.000           30.00    
   5353      1     52    127       1.000           30.00    
   5354      1     52    128       1.000           30.00    
   5355      1     52    129       1.000           30.00    
   5356      1     52    130       1.000           30.00    
   5357      1     52    131       1.000           30.00    
   5358      1     52    132       1.000           30.00    
   5359      1     52    133       1.000           30.00    
   5360      1     52    134       1.000           30.00    
   5361      1     52    135       1.000           30.00    
   5362      1     52    136       1.000           30.00    
   5363      1     52    137       1.000           30.00    
   5364      1     52    138       1.000           30.00    
   5365      1     52    139       1.000           30.00    
   5366      1     52    140       1.000           30.00    
   5367      1     52    141       1.000           30.00    
   5368      1     52    142       1.000           30.00    
   5369      1     52    143       1.000           30.00    
   5370      1     52    144       1.000           30.00    
   5371      1     52    145       1.000           30.00    
   5372      1     52    146       1.000           30.00    
   5373      1     52    147       1.000           30.00    
   5374      1     52    148       1.000           30.00    
   5375      1     52    156       1.000           30.00    
   5376      1     52    157       1.000           30.00    
   5377      1     52    158       1.000           30.00    
   5378      1     52    159       1.000           30.00    
   5379      1     52    160       1.000           30.00    
   5380      1     52    161       1.000           30.00    
   5381      1     52    162       1.000           30.00    
   5382      1     52    163       1.000           30.00    
   5383      1     52    164       1.000           30.00    
   5384      1     52    165       1.000           30.00    
   5385      1     52    166       1.000           30.00    
   5386      1     52    167       1.000           30.00    
   5387      1     52    168       1.000           30.00    
   5388      1     52    169       1.000           30.00    
   5389      1     52    170       1.000           30.00    
   5390      1     52    171       1.000           30.00    
   5391      1     52    172       1.000           30.00    
   5392      1     52    173       1.000           30.00    
   5393      1     52    174       1.000           30.00    
   5394      1     52    175       1.000           30.00    
   5395      1     52    176       1.000           30.00    
   5396      1     52    177       1.000           30.00    
   5397      1     52    178       1.000           30.00    
   5398      1     52    179       1.000           30.00    
   5399      1     52    180       1.000           30.00    
   5400      1     52    181       1.000           30.00    
   5401      1     52    182       1.000           30.00    
   5402      1     52    183       1.000           30.00    
   5403      1     52    184       1.000           30.00    
   5404      1     52    185       1.000           30.00    
   5405      1     52    186       1.000           30.00    
   5406      1     52    187       1.000           30.00    
   5407      1     52    188       1.000           30.00    
   5408      1     53      2       1.000           30.00    
   5409      1     53      3       1.000           30.00    
   5410      1     53      4       1.000           30.00    
   5411      1     53      5       1.000           30.00    
   5412      1     53      6       1.000           30.00    
   5413      1     53      7       1.000           30.00    
   5414      1     53      8       1.000           30.00    
   5415      1     53      9       1.000           30.00    
   5416      1     53     10       1.000           30.00    
   5417      1     53     11       1.000           30.00    
   5418      1     53     12       1.000           30.00    
   5419      1     53     13       1.000           30.00    
   5420      1     53     14       1.000           30.00    
   5421      1     53     15       1.000           30.00    
   5422      1     53     16       1.000           30.00    
   5423      1     53     17       1.000           30.00    
   5424      1     53    105       1.000           30.00    
   5425      1     53    106       1.000           30.00    
   5426      1     53    107       1.000           30.00    
   5427      1     53    108       1.000           30.00    
   5428      1     53    109       1.000           30.00    
   5429      1     53    110       1.000           30.00    
   5430      1     53    111       1.000           30.00    
   5431      1     53    112       1.000           30.00    
   5432      1     53    113       1.000           30.00    
   5433      1     53    114       1.000           30.00    
   5434      1     53    115       1.000           30.00    
   5435      1     53    116       1.000           30.00    
   5436      1     53    117       1.000           30.00    
   5437      1     53    118       1.000           30.00    
   5438      1     53    119       1.000           30.00    
   5439      1     53    120       1.000           30.00    
   5440      1     53    121       1.000           30.00    
   5441      1     53    122       1.000           30.00    
   5442      1     53    123       1.000           30.00    
   5443      1     53    124       1.000           30.00    
   5444      1     53    125       1.000           30.00    
   5445      1     53    126       1.000           30.00    
   5446      1     53    127       1.000           30.00    
   5447      1     53    128       1.000           30.00    
   5448      1     53    129       1.000           30.00    
   5449      1     53    130       1.000           30.00    
   5450      1     53    131       1.000           30.00    
   5451      1     53    132       1.000           30.00    
   5452      1     53    133       1.000           30.00    
   5453      1     53    134       1.000           30.00    
   5454      1     53    135       1.000           30.00    
   5455      1     53    136       1.000           30.00    
   5456      1     53    137       1.000           30.00    
   5457      1     53    138       1.000           30.00    
   5458      1     53    139       1.000           30.00    
   5459      1     53    140       1.000           30.00    
   5460      1     53    141       1.000           30.00    
   5461      1     53    142       1.000           30.00    
   5462      1     53    143       1.000           30.00    
   5463      1     53    144       1.000           30.00    
   5464      1     53    145       1.000           30.00    
   5465      1     53    146       1.000           30.00    
   5466      1     53    147       1.000           30.00    
   5467      1     53    161       1.000           30.00    
   5468      1     53    162       1.000           30.00    
   5469      1     53    163       1.000           30.00    
   5470      1     53    164       1.000           30.00    
   5471      1     53    165       1.000           30.00    
   5472      1     53    166       1.000           30.00    
   5473      1     53    167       1.000           30.00    
   5474      1     53    168       1.000           30.00    
   5475      1     53    169       1.000           30.00    
   5476      1     53    170       1.000           30.00    
   5477      1     53    171       1.000           30.00    
   5478      1     53    172       1.000           30.00    
   5479      1     53    173       1.000           30.00    
   5480      1     53    174       1.000           30.00    
   5481      1     53    175       1.000           30.00    
   5482      1     53    176       1.000           30.00    
   5483      1     53    177       1.000           30.00    
   5484      1     53    178       1.000           30.00    
   5485      1     53    179       1.000           30.00    
   5486      1     53    180       1.000           30.00    
   5487      1     53    181       1.000           30.00    
   5488      1     53    182       1.000           30.00    
   5489      1     54      2       1.000           30.00    
   5490      1     54      3       1.000           30.00    
   5491      1     54      4       1.000           30.00    
   5492      1     54      5       1.000           30.00    
   5493      1     54      6       1.000           30.00    
   5494      1     54      7       1.000           30.00    
   5495      1     54      8       1.000           30.00    
   5496      1     54      9       1.000           30.00    
   5497      1     54     10       1.000           30.00    
   5498      1     54     11       1.000           30.00    
   5499      1     54     12       1.000           30.00    
   5500      1     54     13       1.000           30.00    
   5501      1     54     14       1.000           30.00    
   5502      1     54     15       1.000           30.00    
   5503      1     54     16       1.000           30.00    
   5504      1     54    104       1.000           30.00    
   5505      1     54    105       1.000           30.00    
   5506      1     54    106       1.000           30.00    
   5507      1     54    107       1.000           30.00    
   5508      1     54    108       1.000           30.00    
   5509      1     54    109       1.000           30.00    
   5510      1     54    110       1.000           30.00    
   5511      1     54    111       1.000           30.00    
   5512      1     54    112       1.000           30.00    
   5513      1     54    113       1.000           30.00    
   5514      1     54    114       1.000           30.00    
   5515      1     54    115       1.000           30.00    
   5516      1     54    116       1.000           30.00    
   5517      1     54    117       1.000           30.00    
   5518      1     54    118       1.000           30.00    
   5519      1     54    119       1.000           30.00    
   5520      1     54    120       1.000           30.00    
   5521      1     54    121       1.000           30.00    
   5522      1     54    122       1.000           30.00    
   5523      1     54    123       1.000           30.00    
   5524      1     54    124       1.000           30.00    
   5525      1     54    125       1.000           30.00    
   5526      1     54    126       1.000           30.00    
   5527      1     54    127       1.000           30.00    
   5528      1     54    128       1.000           30.00    
   5529      1     54    129       1.000           30.00    
   5530      1     54    130       1.000           30.00    
   5531      1     54    131       1.000           30.00    
   5532      1     54    132       1.000           30.00    
   5533      1     54    133       1.000           30.00    
   5534      1     54    134       1.000           30.00    
   5535      1     54    135       1.000           30.00    
   5536      1     54    136       1.000           30.00    
   5537      1     54    137       1.000           30.00    
   5538      1     54    138       1.000           30.00    
   5539      1     54    139       1.000           30.00    
   5540      1     54    140       1.000           30.00    
   5541      1     54    141       1.000           30.00    
   5542      1     54    142       1.000           30.00    
   5543      1     54    143       1.000           30.00    
   5544      1     54    144       1.000           30.00    
   5545      1     54    145       1.000           30.00    
   5546      1     54    166       1.000           30.00    
   5547      1     54    167       1.000           30.00    
   5548      1     54    168       1.000           30.00    
   5549      1     54    169       1.000           30.00    
   5550      1     54    170       1.000           30.00    
   5551      1     54    171       1.000           30.00    
   5552      1     54    172       1.000           30.00    
   5553      1     55      2       1.000           30.00    
   5554      1     55      3       1.000           30.00    
   5555      1     55      4       1.000           30.00    
   5556      1     55      5       1.000           30.00    
   5557      1     55      6       1.000           30.00    
   5558      1     55      7       1.000           30.00    
   5559      1     55      8       1.000           30.00    
   5560      1     55      9       1.000           30.00    
   5561      1     55     10       1.000           30.00    
   5562      1     55     11       1.000           30.00    
   5563      1     55     12       1.000           30.00    
   5564      1     55     13       1.000           30.00    
   5565      1     55     14       1.000           30.00    
   5566      1     55     15       1.000           30.00    
   5567      1     55     16       1.000           30.00    
   5568      1     55     98       1.000           30.00    
   5569      1     55     99       1.000           30.00    
   5570      1     55    103       1.000           30.00    
   5571      1     55    104       1.000           30.00    
   5572      1     55    105       1.000           30.00    
   5573      1     55    106       1.000           30.00    
   5574      1     55    107       1.000           30.00    
   5575      1     55    108       1.000           30.00    
   5576      1     55    109       1.000           30.00    
   5577      1     55    110       1.000           30.00    
   5578      1     55    111       1.000           30.00    
   5579      1     55    112       1.000           30.00    
   5580      1     55    113       1.000           30.00    
   5581      1     55    114       1.000           30.00    
   5582      1     55    115       1.000           30.00    
   5583      1     55    116       1.000           30.00    
   5584      1     55    117       1.000           30.00    
   5585      1     55    118       1.000           30.00    
   5586      1     55    119       1.000           30.00    
   5587      1     55    120       1.000           30.00    
   5588      1     55    121       1.000           30.00    
   5589      1     55    122       1.000           30.00    
   5590      1     55    123       1.000           30.00    
   5591      1     55    124       1.000           30.00    
   5592      1     55    125       1.000           30.00    
   5593      1     55    126       1.000           30.00    
   5594      1     55    127       1.000           30.00    
   5595      1     55    128       1.000           30.00    
   5596      1     55    129       1.000           30.00    
   5597      1     55    130       1.000           30.00    
   5598      1     55    131       1.000           30.00    
   5599      1     55    132       1.000           30.00    
   5600      1     55    133       1.000           30.00    
   5601      1     55    134       1.000           30.00    
   5602      1     55    135       1.000           30.00    
   5603      1     55    136       1.000           30.00    
   5604      1     55    137       1.000           30.00    
   5605      1     55    138       1.000           30.00    
   5606      1     55    139       1.000           30.00    
   5607      1     55    140       1.000           30.00    
   5608      1     55    141       1.000           30.00    
   5609      1     55    142       1.000           30.00    
   5610      1     55    143       1.000           30.00    
   5611      1     56      2       1.000           30.00    
   5612      1     56      3       1.000           30.00    
   5613      1     56      4       1.000           30.00    
   5614      1     56      5       1.000           30.00    
   5615      1     56      6       1.000           30.00    
   5616      1     56      7       1.000           30.00    
   5617      1     56      8       1.000           30.00    
   5618      1     56      9       1.000           30.00    
   5619      1     56     10       1.000           30.00    
   5620      1     56     11       1.000           30.00    
   5621      1     56     12       1.000           30.00    
   5622      1     56     13       1.000           30.00    
   5623      1     56     14       1.000           30.00    
   5624      1     56     15       1.000           30.00    
   5625      1     56     16       1.000           30.00    
   5626      1     56     93       1.000           30.00    
   5627      1     56     95       1.000           30.00    
   5628      1     56     96       1.000           30.00    
   5629      1     56     97       1.000           30.00    
   5630      1     56     98       1.000           30.00    
   5631      1     56     99       1.000           30.00    
   5632      1     56    100       1.000           30.00    
   5633      1     56    103       1.000           30.00    
   5634      1     56    104       1.000           30.00    
   5635      1     56    105       1.000           30.00    
   5636      1     56    106       1.000           30.00    
   5637      1     56    107       1.000           30.00    
   5638      1     56    108       1.000           30.00    
   5639      1     56    109       1.000           30.00    
   5640      1     56    110       1.000           30.00    
   5641      1     56    111       1.000           30.00    
   5642      1     56    112       1.000           30.00    
   5643      1     56    113       1.000           30.00    
   5644      1     56    114       1.000           30.00    
   5645      1     56    115       1.000           30.00    
   5646      1     56    116       1.000           30.00    
   5647      1     56    117       1.000           30.00    
   5648      1     56    118       1.000           30.00    
   5649      1     56    119       1.000           30.00    
   5650      1     56    120       1.000           30.00    
   5651      1     56    121       1.000           30.00    
   5652      1     56    122       1.000           30.00    
   5653      1     56    123       1.000           30.00    
   5654      1     56    124       1.000           30.00    
   5655      1     56    125       1.000           30.00    
   5656      1     56    126       1.000           30.00    
   5657      1     56    127       1.000           30.00    
   5658      1     56    128       1.000           30.00    
   5659      1     56    129       1.000           30.00    
   5660      1     56    130       1.000           30.00    
   5661      1     56    131       1.000           30.00    
   5662      1     56    132       1.000           30.00    
   5663      1     56    133       1.000           30.00    
   5664      1     56    134       1.000           30.00    
   5665      1     56    135       1.000           30.00    
   5666      1     56    136       1.000           30.00    
   5667      1     56    137       1.000           30.00    
   5668      1     56    138       1.000           30.00    
   5669      1     56    139       1.000           30.00    
   5670      1     56    140       1.000           30.00    
   5671      1     56    141       1.000           30.00    
   5672      1     57      2       1.000           30.00    
   5673      1     57      3       1.000           30.00    
   5674      1     57      4       1.000           30.00    
   5675      1     57      5       1.000           30.00    
   5676      1     57      6       1.000           30.00    
   5677      1     57      7       1.000           30.00    
   5678      1     57      8       1.000           30.00    
   5679      1     57      9       1.000           30.00    
   5680      1     57     10       1.000           30.00    
   5681      1     57     11       1.000           30.00    
   5682      1     57     12       1.000           30.00    
   5683      1     57     13       1.000           30.00    
   5684      1     57     14       1.000           30.00    
   5685      1     57     15       1.000           30.00    
   5686      1     57     16       1.000           30.00    
   5687      1     57     96       1.000           30.00    
   5688      1     57     97       1.000           30.00    
   5689      1     57     98       1.000           30.00    
   5690      1     57     99       1.000           30.00    
   5691      1     57    100       1.000           30.00    
   5692      1     57    103       1.000           30.00    
   5693      1     57    104       1.000           30.00    
   5694      1     57    105       1.000           30.00    
   5695      1     57    106       1.000           30.00    
   5696      1     57    107       1.000           30.00    
   5697      1     57    108       1.000           30.00    
   5698      1     57    109       1.000           30.00    
   5699      1     57    110       1.000           30.00    
   5700      1     57    111       1.000           30.00    
   5701      1     57    112       1.000           30.00    
   5702      1     57    113       1.000           30.00    
   5703      1     57    114       1.000           30.00    
   5704      1     57    115       1.000           30.00    
   5705      1     57    116       1.000           30.00    
   5706      1     57    117       1.000           30.00    
   5707      1     57    118       1.000           30.00    
   5708      1     57    119       1.000           30.00    
   5709      1     57    120       1.000           30.00    
   5710      1     57    121       1.000           30.00    
   5711      1     57    122       1.000           30.00    
   5712      1     57    123       1.000           30.00    
   5713      1     57    124       1.000           30.00    
   5714      1     57    125       1.000           30.00    
   5715      1     57    126       1.000           30.00    
   5716      1     57    127       1.000           30.00    
   5717      1     57    128       1.000           30.00    
   5718      1     57    129       1.000           30.00    
   5719      1     57    130       1.000           30.00    
   5720      1     57    131       1.000           30.00    
   5721      1     57    132       1.000           30.00    
   5722      1     57    133       1.000           30.00    
   5723      1     57    134       1.000           30.00    
   5724      1     57    135       1.000           30.00    
   5725      1     57    136       1.000           30.00    
   5726      1     57    137       1.000           30.00    
   5727      1     57    138       1.000           30.00    
   5728      1     57    139       1.000           30.00    
   5729      1     58      2       1.000           30.00    
   5730      1     58      3       1.000           30.00    
   5731      1     58      4       1.000           30.00    
   5732      1     58      5       1.000           30.00    
   5733      1     58      6       1.000           30.00    
   5734      1     58      7       1.000           30.00    
   5735      1     58      8       1.000           30.00    
   5736      1     58      9       1.000           30.00    
   5737      1     58     10       1.000           30.00    
   5738      1     58     11       1.000           30.00    
   5739      1     58     12       1.000           30.00    
   5740      1     58     13       1.000           30.00    
   5741      1     58     14       1.000           30.00    
   5742      1     58     15       1.000           30.00    
   5743      1     58     94       1.000           30.00    
   5744      1     58     95       1.000           30.00    
   5745      1     58     96       1.000           30.00    
   5746      1     58     97       1.000           30.00    
   5747      1     58     98       1.000           30.00    
   5748      1     58     99       1.000           30.00    
   5749      1     58    100       1.000           30.00    
   5750      1     58    102       1.000           30.00    
   5751      1     58    103       1.000           30.00    
   5752      1     58    104       1.000           30.00    
   5753      1     58    105       1.000           30.00    
   5754      1     58    106       1.000           30.00    
   5755      1     58    107       1.000           30.00    
   5756      1     58    108       1.000           30.00    
   5757      1     58    109       1.000           30.00    
   5758      1     58    110       1.000           30.00    
   5759      1     58    111       1.000           30.00    
   5760      1     58    112       1.000           30.00    
   5761      1     58    113       1.000           30.00    
   5762      1     58    114       1.000           30.00    
   5763      1     58    115       1.000           30.00    
   5764      1     58    116       1.000           30.00    
   5765      1     58    117       1.000           30.00    
   5766      1     58    118       1.000           30.00    
   5767      1     58    119       1.000           30.00    
   5768      1     58    120       1.000           30.00    
   5769      1     58    121       1.000           30.00    
   5770      1     58    122       1.000           30.00    
   5771      1     58    123       1.000           30.00    
   5772      1     58    124       1.000           30.00    
   5773      1     58    125       1.000           30.00    
   5774      1     58    126       1.000           30.00    
   5775      1     58    127       1.000           30.00    
   5776      1     58    128       1.000           30.00    
   5777      1     58    129       1.000           30.00    
   5778      1     58    130       1.000           30.00    
   5779      1     58    131       1.000           30.00    
   5780      1     58    132       1.000           30.00    
   5781      1     58    133       1.000           30.00    
   5782      1     58    134       1.000           30.00    
   5783      1     58    135       1.000           30.00    
   5784      1     58    136       1.000           30.00    
   5785      1     58    137       1.000           30.00    
   5786      1     59      2       1.000           30.00    
   5787      1     59      3       1.000           30.00    
   5788      1     59      4       1.000           30.00    
   5789      1     59      5       1.000           30.00    
   5790      1     59      6       1.000           30.00    
   5791      1     59      7       1.000           30.00    
   5792      1     59      8       1.000           30.00    
   5793      1     59      9       1.000           30.00    
   5794      1     59     10       1.000           30.00    
   5795      1     59     11       1.000           30.00    
   5796      1     59     12       1.000           30.00    
   5797      1     59     13       1.000           30.00    
   5798      1     59     14       1.000           30.00    
   5799      1     59     15       1.000           30.00    
   5800      1     59     92       1.000           30.00    
   5801      1     59     93       1.000           30.00    
   5802      1     59     94       1.000           30.00    
   5803      1     59     95       1.000           30.00    
   5804      1     59     96       1.000           30.00    
   5805      1     59     97       1.000           30.00    
   5806      1     59     98       1.000           30.00    
   5807      1     59     99       1.000           30.00    
   5808      1     59    101       1.000           30.00    
   5809      1     59    102       1.000           30.00    
   5810      1     59    103       1.000           30.00    
   5811      1     59    104       1.000           30.00    
   5812      1     59    105       1.000           30.00    
   5813      1     59    106       1.000           30.00    
   5814      1     59    107       1.000           30.00    
   5815      1     59    108       1.000           30.00    
   5816      1     59    109       1.000           30.00    
   5817      1     59    110       1.000           30.00    
   5818      1     59    111       1.000           30.00    
   5819      1     59    112       1.000           30.00    
   5820      1     59    113       1.000           30.00    
   5821      1     59    114       1.000           30.00    
   5822      1     59    115       1.000           30.00    
   5823      1     59    116       1.000           30.00    
   5824      1     59    117       1.000           30.00    
   5825      1     59    118       1.000           30.00    
   5826      1     59    119       1.000           30.00    
   5827      1     59    120       1.000           30.00    
   5828      1     59    121       1.000           30.00    
   5829      1     59    122       1.000           30.00    
   5830      1     59    123       1.000           30.00    
   5831      1     59    124       1.000           30.00    
   5832      1     59    125       1.000           30.00    
   5833      1     59    126       1.000           30.00    
   5834      1     59    127       1.000           30.00    
   5835      1     59    128       1.000           30.00    
   5836      1     59    129       1.000           30.00    
   5837      1     59    130       1.000           30.00    
   5838      1     59    131       1.000           30.00    
   5839      1     59    132       1.000           30.00    
   5840      1     59    133       1.000           30.00    
   5841      1     59    134       1.000           30.00    
   5842      1     59    135       1.000           30.00    
   5843      1     60      2       1.000           30.00    
   5844      1     60      3       1.000           30.00    
   5845      1     60      4       1.000           30.00    
   5846      1     60      5       1.000           30.00    
   5847      1     60      6       1.000           30.00    
   5848      1     60      7       1.000           30.00    
   5849      1     60      8       1.000           30.00    
   5850      1     60      9       1.000           30.00    
   5851      1     60     10       1.000           30.00    
   5852      1     60     11       1.000           30.00    
   5853      1     60     12       1.000           30.00    
   5854      1     60     93       1.000           30.00    
   5855      1     60     94       1.000           30.00    
   5856      1     60     95       1.000           30.00    
   5857      1     60     96       1.000           30.00    
   5858      1     60     97       1.000           30.00    
   5859      1     60     98       1.000           30.00    
   5860      1     60     99       1.000           30.00    
   5861      1     60    100       1.000           30.00    
   5862      1     60    101       1.000           30.00    
   5863      1     60    102       1.000           30.00    
   5864      1     60    103       1.000           30.00    
   5865      1     60    104       1.000           30.00    
   5866      1     60    105       1.000           30.00    
   5867      1     60    106       1.000           30.00    
   5868      1     60    107       1.000           30.00    
   5869      1     60    108       1.000           30.00    
   5870      1     60    109       1.000           30.00    
   5871      1     60    110       1.000           30.00    
   5872      1     60    111       1.000           30.00    
   5873      1     60    112       1.000           30.00    
   5874      1     60    113       1.000           30.00    
   5875      1     60    114       1.000           30.00    
   5876      1     60    115       1.000           30.00    
   5877      1     60    116       1.000           30.00    
   5878      1     60    117       1.000           30.00    
   5879      1     60    118       1.000           30.00    
   5880      1     60    119       1.000           30.00    
   5881      1     60    120       1.000           30.00    
   5882      1     60    121       1.000           30.00    
   5883      1     60    122       1.000           30.00    
   5884      1     60    123       1.000           30.00    
   5885      1     60    124       1.000           30.00    
   5886      1     60    125       1.000           30.00    
   5887      1     60    126       1.000           30.00    
   5888      1     60    127       1.000           30.00    
   5889      1     60    128       1.000           30.00    
   5890      1     60    129       1.000           30.00    
   5891      1     60    130       1.000           30.00    
   5892      1     60    131       1.000           30.00    
   5893      1     60    132       1.000           30.00    
   5894      1     60    133       1.000           30.00    
   5895      1     61      2       1.000           30.00    
   5896      1     61      3       1.000           30.00    
   5897      1     61      4       1.000           30.00    
   5898      1     61      5       1.000           30.00    
   5899      1     61      6       1.000           30.00    
   5900      1     61      7       1.000           30.00    
   5901      1     61      8       1.000           30.00    
   5902      1     61      9       1.000           30.00    
   5903      1     61     93       1.000           30.00    
   5904      1     61     94       1.000           30.00    
   5905      1     61     95       1.000           30.00    
   5906      1     61     96       1.000           30.00    
   5907      1     61     97       1.000           30.00    
   5908      1     61     98       1.000           30.00    
   5909      1     61    101       1.000           30.00    
   5910      1     61    102       1.000           30.00    
   5911      1     61    103       1.000           30.00    
   5912      1     61    104       1.000           30.00    
   5913      1     61    105       1.000           30.00    
   5914      1     61    106       1.000           30.00    
   5915      1     61    107       1.000           30.00    
   5916      1     61    108       1.000           30.00    
   5917      1     61    109       1.000           30.00    
   5918      1     61    110       1.000           30.00    
   5919      1     61    111       1.000           30.00    
   5920      1     61    112       1.000           30.00    
   5921      1     61    113       1.000           30.00    
   5922      1     61    114       1.000           30.00    
   5923      1     61    115       1.000           30.00    
   5924      1     61    116       1.000           30.00    
   5925      1     61    117       1.000           30.00    
   5926      1     61    118       1.000           30.00    
   5927      1     61    119       1.000           30.00    
   5928      1     61    120       1.000           30.00    
   5929      1     61    121       1.000           30.00    
   5930      1     61    122       1.000           30.00    
   5931      1     61    123       1.000           30.00    
   5932      1     61    124       1.000           30.00    
   5933      1     61    125       1.000           30.00    
   5934      1     61    126       1.000           30.00    
   5935      1     61    127       1.000           30.00    
   5936      1     61    128       1.000           30.00    
   5937      1     61    129       1.000           30.00    
   5938      1     61    130       1.000           30.00    
   5939      1     61    131       1.000           30.00    
   5940      1     62      2       1.000           30.00    
   5941      1     62      3       1.000           30.00    
   5942      1     62      4       1.000           30.00    
   5943      1     62      5       1.000           30.00    
   5944      1     62      6       1.000           30.00    
   5945      1     62      7       1.000           30.00    
   5946      1     62      8       1.000           30.00    
   5947      1     62      9       1.000           30.00    
   5948      1     62     10       1.000           30.00    
   5949      1     62     11       1.000           30.00    
   5950      1     62     94       1.000           30.00    
   5951      1     62     95       1.000           30.00    
   5952      1     62     96       1.000           30.00    
   5953      1     62     97       1.000           30.00    
   5954      1     62     98       1.000           30.00    
   5955      1     62     99       1.000           30.00    
   5956      1     62    100       1.000           30.00    
   5957      1     62    101       1.000           30.00    
   5958      1     62    102       1.000           30.00    
   5959      1     62    103       1.000           30.00    
   5960      1     62    104       1.000           30.00    
   5961      1     62    105       1.000           30.00    
   5962      1     62    106       1.000           30.00    
   5963      1     62    107       1.000           30.00    
   5964      1     62    108       1.000           30.00    
   5965      1     62    109       1.000           30.00    
   5966      1     62    110       1.000           30.00    
   5967      1     62    111       1.000           30.00    
   5968      1     62    112       1.000           30.00    
   5969      1     62    113       1.000           30.00    
   5970      1     62    114       1.000           30.00    
   5971      1     62    115       1.000           30.00    
   5972      1     62    116       1.000           30.00    
   5973      1     62    117       1.000           30.00    
   5974      1     62    118       1.000           30.00    
   5975      1     62    119       1.000           30.00    
   5976      1     62    120       1.000           30.00    
   5977      1     62    121       1.000           30.00    
   5978      1     62    122       1.000           30.00    
   5979      1     62    123       1.000           30.00    
   5980      1     62    124       1.000           30.00    
   5981      1     62    125       1.000           30.00    
   5982      1     62    126       1.000           30.00    
   5983      1     62    127       1.000           30.00    
   5984      1     62    128       1.000           30.00    
   5985      1     62    129       1.000           30.00    
   5986      1     62    130       1.000           30.00    
   5987      1     63      2       1.000           30.00    
   5988      1     63      3       1.000           30.00    
   5989      1     63      4       1.000           30.00    
   5990      1     63      5       1.000           30.00    
   5991      1     63      6       1.000           30.00    
   5992      1     63      7       1.000           30.00    
   5993      1     63      8       1.000           30.00    
   5994      1     63      9       1.000           30.00    
   5995      1     63     10       1.000           30.00    
   5996      1     63     11       1.000           30.00    
   5997      1     63     12       1.000           30.00    
   5998      1     63     13       1.000           30.00    
   5999      1     63     94       1.000           30.00    
   6000      1     63     95       1.000           30.00    
   6001      1     63     96       1.000           30.00    
   6002      1     63     97       1.000           30.00    
   6003      1     63     98       1.000           30.00    
   6004      1     63     99       1.000           30.00    
   6005      1     63    100       1.000           30.00    
   6006      1     63    101       1.000           30.00    
   6007      1     63    102       1.000           30.00    
   6008      1     63    103       1.000           30.00    
   6009      1     63    104       1.000           30.00    
   6010      1     63    105       1.000           30.00    
   6011      1     63    106       1.000           30.00    
   6012      1     63    107       1.000           30.00    
   6013      1     63    108       1.000           30.00    
   6014      1     63    109       1.000           30.00    
   6015      1     63    110       1.000           30.00    
   6016      1     63    111       1.000           30.00    
   6017      1     63    112       1.000           30.00    
   6018      1     63    113       1.000           30.00    
   6019      1     63    114       1.000           30.00    
   6020      1     63    115       1.000           30.00    
   6021      1     63    116       1.000           30.00    
   6022      1     63    117       1.000           30.00    
   6023      1     63    118       1.000           30.00    
   6024      1     63    119       1.000           30.00    
   6025      1     63    120       1.000           30.00    
   6026      1     63    121       1.000           30.00    
   6027      1     63    122       1.000           30.00    
   6028      1     63    123       1.000           30.00    
   6029      1     63    124       1.000           30.00    
   6030      1     63    125       1.000           30.00    
   6031      1     63    126       1.000           30.00    
   6032      1     63    127       1.000           30.00    
   6033      1     63    128       1.000           30.00    
   6034      1     64      2       1.000           30.00    
   6035      1     64      3       1.000           30.00    
   6036      1     64      4       1.000           30.00    
   6037      1     64      5       1.000           30.00    
   6038      1     64      6       1.000           30.00    
   6039      1     64      7       1.000           30.00    
   6040      1     64      8       1.000           30.00    
   6041      1     64      9       1.000           30.00    
   6042      1     64     10       1.000           30.00    
   6043      1     64     11       1.000           30.00    
   6044      1     64     12       1.000           30.00    
   6045      1     64     13       1.000           30.00    
   6046      1     64     14       1.000           30.00    
   6047      1     64     15       1.000           30.00    
   6048      1     64     16       1.000           30.00    
   6049      1     64     17       1.000           30.00    
   6050      1     64     18       1.000           30.00    
   6051      1     64     31       1.000           30.00    
   6052      1     64     32       1.000           30.00    
   6053      1     64    102       1.000           30.00    
   6054      1     64    103       1.000           30.00    
   6055      1     64    104       1.000           30.00    
   6056      1     64    105       1.000           30.00    
   6057      1     64    106       1.000           30.00    
   6058      1     64    107       1.000           30.00    
   6059      1     64    108       1.000           30.00    
   6060      1     64    109       1.000           30.00    
   6061      1     64    110       1.000           30.00    
   6062      1     64    111       1.000           30.00    
   6063      1     64    112       1.000           30.00    
   6064      1     64    113       1.000           30.00    
   6065      1     64    114       1.000           30.00    
   6066      1     64    115       1.000           30.00    
   6067      1     64    116       1.000           30.00    
   6068      1     64    117       1.000           30.00    
   6069      1     64    118       1.000           30.00    
   6070      1     64    119       1.000           30.00    
   6071      1     64    120       1.000           30.00    
   6072      1     64    121       1.000           30.00    
   6073      1     64    122       1.000           30.00    
   6074      1     64    123       1.000           30.00    
   6075      1     64    124       1.000           30.00    
   6076      1     64    125       1.000           30.00    
   6077      1     64    126       1.000           30.00    
   6078      1     65      2       1.000           30.00    
   6079      1     65      3       1.000           30.00    
   6080      1     65      4       1.000           30.00    
   6081      1     65      5       1.000           30.00    
   6082      1     65      6       1.000           30.00    
   6083      1     65      7       1.000           30.00    
   6084      1     65      8       1.000           30.00    
   6085      1     65      9       1.000           30.00    
   6086      1     65     10       1.000           30.00    
   6087      1     65     11       1.000           30.00    
   6088      1     65     12       1.000           30.00    
   6089      1     65     13       1.000           30.00    
   6090      1     65     14       1.000           30.00    
   6091      1     65     15       1.000           30.00    
   6092      1     65     16       1.000           30.00    
   6093      1     65     17       1.000           30.00    
   6094      1     65     18       1.000           30.00    
   6095      1     65     19       1.000           30.00    
   6096      1     65     30       1.000           30.00    
   6097      1     65     31       1.000           30.00    
   6098      1     65     32       1.000           30.00    
   6099      1     65     33       1.000           30.00    
   6100      1     65    102       1.000           30.00    
   6101      1     65    103       1.000           30.00    
   6102      1     65    104       1.000           30.00    
   6103      1     65    105       1.000           30.00    
   6104      1     65    106       1.000           30.00    
   6105      1     65    107       1.000           30.00    
   6106      1     65    108       1.000           30.00    
   6107      1     65    109       1.000           30.00    
   6108      1     65    110       1.000           30.00    
   6109      1     65    111       1.000           30.00    
   6110      1     65    112       1.000           30.00    
   6111      1     65    113       1.000           30.00    
   6112      1     65    114       1.000           30.00    
   6113      1     65    115       1.000           30.00    
   6114      1     65    116       1.000           30.00    
   6115      1     65    117       1.000           30.00    
   6116      1     65    118       1.000           30.00    
   6117      1     65    119       1.000           30.00    
   6118      1     65    120       1.000           30.00    
   6119      1     65    121       1.000           30.00    
   6120      1     65    122       1.000           30.00    
   6121      1     65    123       1.000           30.00    
   6122      1     65    124       1.000           30.00    
   6123      1     66      2       1.000           30.00    
   6124      1     66      3       1.000           30.00    
   6125      1     66      4       1.000           30.00    
   6126      1     66      5       1.000           30.00    
   6127      1     66      6       1.000           30.00    
   6128      1     66      7       1.000           30.00    
   6129      1     66      8       1.000           30.00    
   6130      1     66      9       1.000           30.00    
   6131      1     66     10       1.000           30.00    
   6132      1     66     11       1.000           30.00    
   6133      1     66     12       1.000           30.00    
   6134      1     66     13       1.000           30.00    
   6135      1     66     14       1.000           30.00    
   6136      1     66     15       1.000           30.00    
   6137      1     66     16       1.000           30.00    
   6138      1     66     17       1.000           30.00    
   6139      1     66     18       1.000           30.00    
   6140      1     66     19       1.000           30.00    
   6141      1     66     20       1.000           30.00    
   6142      1     66     21       1.000           30.00    
   6143      1     66     29       1.000           30.00    
   6144      1     66     30       1.000           30.00    
   6145      1     66     31       1.000           30.00    
   6146      1     66     32       1.000           30.00    
   6147      1     66     33       1.000           30.00    
   6148      1     66    100       1.000           30.00    
   6149      1     66    101       1.000           30.00    
   6150      1     66    102       1.000           30.00    
   6151      1     66    103       1.000           30.00    
   6152      1     66    104       1.000           30.00    
   6153      1     66    105       1.000           30.00    
   6154      1     66    106       1.000           30.00    
   6155      1     66    107       1.000           30.00    
   6156      1     66    108       1.000           30.00    
   6157      1     66    109       1.000           30.00    
   6158      1     66    110       1.000           30.00    
   6159      1     66    111       1.000           30.00    
   6160      1     66    112       1.000           30.00    
   6161      1     66    113       1.000           30.00    
   6162      1     66    114       1.000           30.00    
   6163      1     66    115       1.000           30.00    
   6164      1     66    116       1.000           30.00    
   6165      1     66    117       1.000           30.00    
   6166      1     66    118       1.000           30.00    
   6167      1     66    119       1.000           30.00    
   6168      1     66    120       1.000           30.00    
   6169      1     66    121       1.000           30.00    
   6170      1     66    122       1.000           30.00    
   6171      1     67      2       1.000           30.00    
   6172      1     67      3       1.000           30.00    
   6173      1     67      4       1.000           30.00    
   6174      1     67      5       1.000           30.00    
   6175      1     67      6       1.000           30.00    
   6176      1     67      7       1.000           30.00    
   6177      1     67      8       1.000           30.00    
   6178      1     67      9       1.000           30.00    
   6179      1     67     10       1.000           30.00    
   6180      1     67     11       1.000           30.00    
   6181      1     67     12       1.000           30.00    
   6182      1     67     13       1.000           30.00    
   6183      1     67     14       1.000           30.00    
   6184      1     67     15       1.000           30.00    
   6185      1     67     16       1.000           30.00    
   6186      1     67     17       1.000           30.00    
   6187      1     67     18       1.000           30.00    
   6188      1     67     19       1.000           30.00    
   6189      1     67     20       1.000           30.00    
   6190      1     67     21       1.000           30.00    
   6191      1     67     22       1.000           30.00    
   6192      1     67     23       1.000           30.00    
   6193      1     67     28       1.000           30.00    
   6194      1     67     29       1.000           30.00    
   6195      1     67     30       1.000           30.00    
   6196      1     67     31       1.000           30.00    
   6197      1     67     32       1.000           30.00    
   6198      1     67     33       1.000           30.00    
   6199      1     67     98       1.000           30.00    
   6200      1     67     99       1.000           30.00    
   6201      1     67    100       1.000           30.00    
   6202      1     67    101       1.000           30.00    
   6203      1     67    102       1.000           30.00    
   6204      1     67    103       1.000           30.00    
   6205      1     67    104       1.000           30.00    
   6206      1     67    105       1.000           30.00    
   6207      1     67    106       1.000           30.00    
   6208      1     67    107       1.000           30.00    
   6209      1     67    108       1.000           30.00    
   6210      1     67    109       1.000           30.00    
   6211      1     67    110       1.000           30.00    
   6212      1     67    111       1.000           30.00    
   6213      1     67    112       1.000           30.00    
   6214      1     67    113       1.000           30.00    
   6215      1     67    114       1.000           30.00    
   6216      1     67    115       1.000           30.00    
   6217      1     67    116       1.000           30.00    
   6218      1     67    117       1.000           30.00    
   6219      1     67    118       1.000           30.00    
   6220      1     67    119       1.000           30.00    
   6221      1     67    120       1.000           30.00    
   6222      1     68      2       1.000           30.00    
   6223      1     68      3       1.000           30.00    
   6224      1     68      4       1.000           30.00    
   6225      1     68      5       1.000           30.00    
   6226      1     68      6       1.000           30.00    
   6227      1     68      7       1.000           30.00    
   6228      1     68      8       1.000           30.00    
   6229      1     68      9       1.000           30.00    
   6230      1     68     10       1.000           30.00    
   6231      1     68     11       1.000           30.00    
   6232      1     68     12       1.000           30.00    
   6233      1     68     13       1.000           30.00    
   6234      1     68     14       1.000           30.00    
   6235      1     68     15       1.000           30.00    
   6236      1     68     16       1.000           30.00    
   6237      1     68     17       1.000           30.00    
   6238      1     68     18       1.000           30.00    
   6239      1     68     19       1.000           30.00    
   6240      1     68     20       1.000           30.00    
   6241      1     68     21       1.000           30.00    
   6242      1     68     22       1.000           30.00    
   6243      1     68     23       1.000           30.00    
   6244      1     68     24       1.000           30.00    
   6245      1     68     25       1.000           30.00    
   6246      1     68     26       1.000           30.00    
   6247      1     68     27       1.000           30.00    
   6248      1     68     28       1.000           30.00    
   6249      1     68     29       1.000           30.00    
   6250      1     68     30       1.000           30.00    
   6251      1     68     31       1.000           30.00    
   6252      1     68     32       1.000           30.00    
   6253      1     68     33       1.000           30.00    
   6254      1     68     34       1.000           30.00    
   6255      1     68     36       1.000           30.00    
   6256      1     68     37       1.000           30.00    
   6257      1     68     40       1.000           30.00    
   6258      1     68     41       1.000           30.00    
   6259      1     68     97       1.000           30.00    
   6260      1     68     98       1.000           30.00    
   6261      1     68     99       1.000           30.00    
   6262      1     68    100       1.000           30.00    
   6263      1     68    101       1.000           30.00    
   6264      1     68    102       1.000           30.00    
   6265      1     68    103       1.000           30.00    
   6266      1     68    104       1.000           30.00    
   6267      1     68    105       1.000           30.00    
   6268      1     68    106       1.000           30.00    
   6269      1     68    107       1.000           30.00    
   6270      1     68    108       1.000           30.00    
   6271      1     68    109       1.000           30.00    
   6272      1     68    110       1.000           30.00    
   6273      1     68    111       1.000           30.00    
   6274      1     68    112       1.000           30.00    
   6275      1     68    113       1.000           30.00    
   6276      1     68    114       1.000           30.00    
   6277      1     68    115       1.000           30.00    
   6278      1     68    116       1.000           30.00    
   6279      1     68    117       1.000           30.00    
   6280      1     69      2       1.000           30.00    
   6281      1     69      3       1.000           30.00    
   6282      1     69      4       1.000           30.00    
   6283      1     69      5       1.000           30.00    
   6284      1     69      6       1.000           30.00    
   6285      1     69      7       1.000           30.00    
   6286      1     69      8       1.000           30.00    
   6287      1     69      9       1.000           30.00    
   6288      1     69     10       1.000           30.00    
   6289      1     69     11       1.000           30.00    
   6290      1     69     12       1.000           30.00    
   6291      1     69     13       1.000           30.00    
   6292      1     69     14       1.000           30.00    
   6293      1     69     15       1.000           30.00    
   6294      1     69     16       1.000           30.00    
   6295      1     69     17       1.000           30.00    
   6296      1     69     18       1.000           30.00    
   6297      1     69     19       1.000           30.00    
   6298      1     69     20       1.000           30.00    
   6299      1     69     21       1.000           30.00    
   6300      1     69     22       1.000           30.00    
   6301      1     69     23       1.000           30.00    
   6302      1     69     24       1.000           30.00    
   6303      1     69     25       1.000           30.00    
   6304      1     69     26       1.000           30.00    
   6305      1     69     27       1.000           30.00    
   6306      1     69     28       1.000           30.00    
   6307      1     69     29       1.000           30.00    
   6308      1     69     30       1.000           30.00    
   6309      1     69     31       1.000           30.00    
   6310      1     69     32       1.000           30.00    
   6311      1     69     33       1.000           30.00    
   6312      1     69     34       1.000           30.00    
   6313      1     69     35       1.000           30.00    
   6314      1     69     36       1.000           30.00    
   6315      1     69     37       1.000           30.00    
   6316      1     69     38       1.000           30.00    
   6317      1     69     39       1.000           30.00    
   6318      1     69     40       1.000           30.00    
   6319      1     69     41       1.000           30.00    
   6320      1     69     95       1.000           30.00    
   6321      1     69     96       1.000           30.00    
   6322      1     69     97       1.000           30.00    
   6323      1     69     98       1.000           30.00    
   6324      1     69     99       1.000           30.00    
   6325      1     69    100       1.000           30.00    
   6326      1     69    101       1.000           30.00    
   6327      1     69    102       1.000           30.00    
   6328      1     69    103       1.000           30.00    
   6329      1     69    104       1.000           30.00    
   6330      1     69    105       1.000           30.00    
   6331      1     69    106       1.000           30.00    
   6332      1     69    107       1.000           30.00    
   6333      1     69    108       1.000           30.00    
   6334      1     69    109       1.000           30.00    
   6335      1     69    110       1.000           30.00    
   6336      1     69    111       1.000           30.00    
   6337      1     69    112       1.000           30.00    
   6338      1     69    113       1.000           30.00    
   6339      1     69    114       1.000           30.00    
   6340      1     70      2       1.000           30.00    
   6341      1     70      3       1.000           30.00    
   6342      1     70      4       1.000           30.00    
   6343      1     70      5       1.000           30.00    
   6344      1     70      6       1.000           30.00    
   6345      1     70      7       1.000           30.00    
   6346      1     70      8       1.000           30.00    
   6347      1     70      9       1.000           30.00    
   6348      1     70     10       1.000           30.00    
   6349      1     70     11       1.000           30.00    
   6350      1     70     12       1.000           30.00    
   6351      1     70     13       1.000           30.00    
   6352      1     70     14       1.000           30.00    
   6353      1     70     15       1.000           30.00    
   6354      1     70     16       1.000           30.00    
   6355      1     70     17       1.000           30.00    
   6356      1     70     18       1.000           30.00    
   6357      1     70     19       1.000           30.00    
   6358      1     70     20       1.000           30.00    
   6359      1     70     21       1.000           30.00    
   6360      1     70     22       1.000           30.00    
   6361      1     70     23       1.000           30.00    
   6362      1     70     24       1.000           30.00    
   6363      1     70     25       1.000           30.00    
   6364      1     70     26       1.000           30.00    
   6365      1     70     27       1.000           30.00    
   6366      1     70     28       1.000           30.00    
   6367      1     70     29       1.000           30.00    
   6368      1     70     30       1.000           30.00    
   6369      1     70     31       1.000           30.00    
   6370      1     70     32       1.000           30.00    
   6371      1     70     33       1.000           30.00    
   6372      1     70     34       1.000           30.00    
   6373      1     70     35       1.000           30.00    
   6374      1     70     36       1.000           30.00    
   6375      1     70     37       1.000           30.00    
   6376      1     70     38       1.000           30.00    
   6377      1     70     39       1.000           30.00    
   6378      1     70     40       1.000           30.00    
   6379      1     70     41       1.000           30.00    
   6380      1     70     42       1.000           30.00    
   6381      1     70     43       1.000           30.00    
   6382      1     70     44       1.000           30.00    
   6383      1     70     94       1.000           30.00    
   6384      1     70     95       1.000           30.00    
   6385      1     70     96       1.000           30.00    
   6386      1     70     97       1.000           30.00    
   6387      1     70     98       1.000           30.00    
   6388      1     70     99       1.000           30.00    
   6389      1     70    100       1.000           30.00    
   6390      1     70    101       1.000           30.00    
   6391      1     70    102       1.000           30.00    
   6392      1     70    103       1.000           30.00    
   6393      1     70    104       1.000           30.00    
   6394      1     70    105       1.000           30.00    
   6395      1     70    106       1.000           30.00    
   6396      1     70    107       1.000           30.00    
   6397      1     70    108       1.000           30.00    
   6398      1     70    109       1.000           30.00    
   6399      1     70    110       1.000           30.00    
   6400      1     70    111       1.000           30.00    
   6401      1     71      2       1.000           30.00    
   6402      1     71      3       1.000           30.00    
   6403      1     71      4       1.000           30.00    
   6404      1     71      5       1.000           30.00    
   6405      1     71      6       1.000           30.00    
   6406      1     71      7       1.000           30.00    
   6407      1     71      8       1.000           30.00    
   6408      1     71      9       1.000           30.00    
   6409      1     71     10       1.000           30.00    
   6410      1     71     11       1.000           30.00    
   6411      1     71     12       1.000           30.00    
   6412      1     71     13       1.000           30.00    
   6413      1     71     14       1.000           30.00    
   6414      1     71     15       1.000           30.00    
   6415      1     71     16       1.000           30.00    
   6416      1     71     17       1.000           30.00    
   6417      1     71     18       1.000           30.00    
   6418      1     71     19       1.000           30.00    
   6419      1     71     20       1.000           30.00    
   6420      1     71     21       1.000           30.00    
   6421      1     71     22       1.000           30.00    
   6422      1     71     23       1.000           30.00    
   6423      1     71     24       1.000           30.00    
   6424      1     71     25       1.000           30.00    
   6425      1     71     26       1.000           30.00    
   6426      1     71     27       1.000           30.00    
   6427      1     71     28       1.000           30.00    
   6428      1     71     29       1.000           30.00    
   6429      1     71     30       1.000           30.00    
   6430      1     71     31       1.000           30.00    
   6431      1     71     32       1.000           30.00    
   6432      1     71     33       1.000           30.00    
   6433      1     71     34       1.000           30.00    
   6434      1     71     35       1.000           30.00    
   6435      1     71     36       1.000           30.00    
   6436      1     71     37       1.000           30.00    
   6437      1     71     38       1.000           30.00    
   6438      1     71     39       1.000           30.00    
   6439      1     71     40       1.000           30.00    
   6440      1     71     41       1.000           30.00    
   6441      1     71     42       1.000           30.00    
   6442      1     71     43       1.000           30.00    
   6443      1     71     44       1.000           30.00    
   6444      1     71     45       1.000           30.00    
   6445      1     71     46       1.000           30.00    
   6446      1     71     93       1.000           30.00    
   6447      1     71     94       1.000           30.00    
   6448      1     71     95       1.000           30.00    
   6449      1     71     96       1.000           30.00    
   6450      1     71     97       1.000           30.00    
   6451      1     71     98       1.000           30.00    
   6452      1     71     99       1.000           30.00    
   6453      1     71    100       1.000           30.00    
   6454      1     71    101       1.000           30.00    
   6455      1     71    102       1.000           30.00    
   6456      1     71    103       1.000           30.00    
   6457      1     71    104       1.000           30.00    
   6458      1     71    105       1.000           30.00    
   6459      1     71    106       1.000           30.00    
   6460      1     71    107       1.000           30.00    
   6461      1     71    108       1.000           30.00    
   6462      1     72      2       1.000           30.00    
   6463      1     72      3       1.000           30.00    
   6464      1     72      4       1.000           30.00    
   6465      1     72      5       1.000           30.00    
   6466      1     72      6       1.000           30.00    
   6467      1     72      7       1.000           30.00    
   6468      1     72      8       1.000           30.00    
   6469      1     72      9       1.000           30.00    
   6470      1     72     10       1.000           30.00    
   6471      1     72     11       1.000           30.00    
   6472      1     72     12       1.000           30.00    
   6473      1     72     13       1.000           30.00    
   6474      1     72     14       1.000           30.00    
   6475      1     72     15       1.000           30.00    
   6476      1     72     16       1.000           30.00    
   6477      1     72     17       1.000           30.00    
   6478      1     72     18       1.000           30.00    
   6479      1     72     19       1.000           30.00    
   6480      1     72     20       1.000           30.00    
   6481      1     72     21       1.000           30.00    
   6482      1     72     22       1.000           30.00    
   6483      1     72     23       1.000           30.00    
   6484      1     72     24       1.000           30.00    
   6485      1     72     25       1.000           30.00    
   6486      1     72     26       1.000           30.00    
   6487      1     72     27       1.000           30.00    
   6488      1     72     28       1.000           30.00    
   6489      1     72     29       1.000           30.00    
   6490      1     72     30       1.000           30.00    
   6491      1     72     31       1.000           30.00    
   6492      1     72     32       1.000           30.00    
   6493      1     72     33       1.000           30.00    
   6494      1     72     34       1.000           30.00    
   6495      1     72     35       1.000           30.00    
   6496      1     72     36       1.000           30.00    
   6497      1     72     37       1.000           30.00    
   6498      1     72     38       1.000           30.00    
   6499      1     72     39       1.000           30.00    
   6500      1     72     40       1.000           30.00    
   6501      1     72     41       1.000           30.00    
   6502      1     72     42       1.000           30.00    
   6503      1     72     43       1.000           30.00    
   6504      1     72     44       1.000           30.00    
   6505      1     72     45       1.000           30.00    
   6506      1     72     46       1.000           30.00    
   6507      1     72     90       1.000           30.00    
   6508      1     72     91       1.000           30.00    
   6509      1     72     92       1.000           30.00    
   6510      1     72     93       1.000           30.00    
   6511      1     72     94       1.000           30.00    
   6512      1     72     95       1.000           30.00    
   6513      1     72     96       1.000           30.00    
   6514      1     72     97       1.000           30.00    
   6515      1     72     98       1.000           30.00    
   6516      1     72     99       1.000           30.00    
   6517      1     72    100       1.000           30.00    
   6518      1     72    101       1.000           30.00    
   6519      1     72    102       1.000           30.00    
   6520      1     72    103       1.000           30.00    
   6521      1     72    104       1.000           30.00    
   6522      1     72    105       1.000           30.00    
   6523      1     72    106       1.000           30.00    
   6524      1     73      2       1.000           30.00    
   6525      1     73      3       1.000           30.00    
   6526      1     73      4       1.000           30.00    
   6527      1     73      5       1.000           30.00    
   6528      1     73      6       1.000           30.00    
   6529      1     73      7       1.000           30.00    
   6530      1     73      8       1.000           30.00    
   6531      1     73      9       1.000           30.00    
   6532      1     73     10       1.000           30.00    
   6533      1     73     11       1.000           30.00    
   6534      1     73     12       1.000           30.00    
   6535      1     73     13       1.000           30.00    
   6536      1     73     14       1.000           30.00    
   6537      1     73     15       1.000           30.00    
   6538      1     73     16       1.000           30.00    
   6539      1     73     17       1.000           30.00    
   6540      1     73     18       1.000           30.00    
   6541      1     73     19       1.000           30.00    
   6542      1     73     20       1.000           30.00    
   6543      1     73     21       1.000           30.00    
   6544      1     73     22       1.000           30.00    
   6545      1     73     23       1.000           30.00    
   6546      1     73     24       1.000           30.00    
   6547      1     73     25       1.000           30.00    
   6548      1     73     26       1.000           30.00    
   6549      1     73     27       1.000           30.00    
   6550      1     73     28       1.000           30.00    
   6551      1     73     29       1.000           30.00    
   6552      1     73     30       1.000           30.00    
   6553      1     73     31       1.000           30.00    
   6554      1     73     32       1.000           30.00    
   6555      1     73     33       1.000           30.00    
   6556      1     73     34       1.000           30.00    
   6557      1     73     35       1.000           30.00    
   6558      1     73     36       1.000           30.00    
   6559      1     73     37       1.000           30.00    
   6560      1     73     38       1.000           30.00    
   6561      1     73     39       1.000           30.00    
   6562      1     73     40       1.000           30.00    
   6563      1     73     41       1.000           30.00    
   6564      1     73     42       1.000           30.00    
   6565      1     73     43       1.000           30.00    
   6566      1     73     44       1.000           30.00    
   6567      1     73     45       1.000           30.00    
   6568      1     73     46       1.000           30.00    
   6569      1     73     89       1.000           30.00    
   6570      1     73     90       1.000           30.00    
   6571      1     73     91       1.000           30.00    
   6572      1     73     92       1.000           30.00    
   6573      1     73     93       1.000           30.00    
   6574      1     73     94       1.000           30.00    
   6575      1     73     95       1.000           30.00    
   6576      1     73     96       1.000           30.00    
   6577      1     73     97       1.000           30.00    
   6578      1     73     98       1.000           30.00    
   6579      1     73     99       1.000           30.00    
   6580      1     73    100       1.000           30.00    
   6581      1     73    101       1.000           30.00    
   6582      1     73    102       1.000           30.00    
   6583      1     73    103       1.000           30.00    
   6584      1     74      2       1.000           30.00    
   6585      1     74      3       1.000           30.00    
   6586      1     74      4       1.000           30.00    
   6587      1     74      5       1.000           30.00    
   6588      1     74      6       1.000           30.00    
   6589      1     74      7       1.000           30.00    
   6590      1     74      8       1.000           30.00    
   6591      1     74      9       1.000           30.00    
   6592      1     74     10       1.000           30.00    
   6593      1     74     11       1.000           30.00    
   6594      1     74     12       1.000           30.00    
   6595      1     74     13       1.000           30.00    
   6596      1     74     14       1.000           30.00    
   6597      1     74     15       1.000           30.00    
   6598      1     74     16       1.000           30.00    
   6599      1     74     17       1.000           30.00    
   6600      1     74     18       1.000           30.00    
   6601      1     74     19       1.000           30.00    
   6602      1     74     20       1.000           30.00    
   6603      1     74     21       1.000           30.00    
   6604      1     74     22       1.000           30.00    
   6605      1     74     23       1.000           30.00    
   6606      1     74     24       1.000           30.00    
   6607      1     74     25       1.000           30.00    
   6608      1     74     26       1.000           30.00    
   6609      1     74     27       1.000           30.00    
   6610      1     74     28       1.000           30.00    
   6611      1     74     29       1.000           30.00    
   6612      1     74     30       1.000           30.00    
   6613      1     74     31       1.000           30.00    
   6614      1     74     32       1.000           30.00    
   6615      1     74     33       1.000           30.00    
   6616      1     74     34       1.000           30.00    
   6617      1     74     35       1.000           30.00    
   6618      1     74     36       1.000           30.00    
   6619      1     74     37       1.000           30.00    
   6620      1     74     38       1.000           30.00    
   6621      1     74     39       1.000           30.00    
   6622      1     74     40       1.000           30.00    
   6623      1     74     41       1.000           30.00    
   6624      1     74     42       1.000           30.00    
   6625      1     74     43       1.000           30.00    
   6626      1     74     44       1.000           30.00    
   6627      1     74     45       1.000           30.00    
   6628      1     74     46       1.000           30.00    
   6629      1     74     88       1.000           30.00    
   6630      1     74     89       1.000           30.00    
   6631      1     74     90       1.000           30.00    
   6632      1     74     91       1.000           30.00    
   6633      1     74     92       1.000           30.00    
   6634      1     74     93       1.000           30.00    
   6635      1     74     94       1.000           30.00    
   6636      1     74     95       1.000           30.00    
   6637      1     74     96       1.000           30.00    
   6638      1     74     97       1.000           30.00    
   6639      1     74     98       1.000           30.00    
   6640      1     74     99       1.000           30.00    
   6641      1     74    100       1.000           30.00    
   6642      1     75      2       1.000           30.00    
   6643      1     75      3       1.000           30.00    
   6644      1     75      4       1.000           30.00    
   6645      1     75      5       1.000           30.00    
   6646      1     75      6       1.000           30.00    
   6647      1     75      7       1.000           30.00    
   6648      1     75      8       1.000           30.00    
   6649      1     75      9       1.000           30.00    
   6650      1     75     10       1.000           30.00    
   6651      1     75     11       1.000           30.00    
   6652      1     75     12       1.000           30.00    
   6653      1     75     13       1.000           30.00    
   6654      1     75     14       1.000           30.00    
   6655      1     75     15       1.000           30.00    
   6656      1     75     16       1.000           30.00    
   6657      1     75     17       1.000           30.00    
   6658      1     75     18       1.000           30.00    
   6659      1     75     19       1.000           30.00    
   6660      1     75     20       1.000           30.00    
   6661      1     75     21       1.000           30.00    
   6662      1     75     22       1.000           30.00    
   6663      1     75     23       1.000           30.00    
   6664      1     75     24       1.000           30.00    
   6665      1     75     25       1.000           30.00    
   6666      1     75     26       1.000           30.00    
   6667      1     75     27       1.000           30.00    
   6668      1     75     28       1.000           30.00    
   6669      1     75     29       1.000           30.00    
   6670      1     75     30       1.000           30.00    
   6671      1     75     31       1.000           30.00    
   6672      1     75     32       1.000           30.00    
   6673      1     75     33       1.000           30.00    
   6674      1     75     34       1.000           30.00    
   6675      1     75     35       1.000           30.00    
   6676      1     75     36       1.000           30.00    
   6677      1     75     37       1.000           30.00    
   6678      1     75     38       1.000           30.00    
   6679      1     75     39       1.000           30.00    
   6680      1     75     40       1.000           30.00    
   6681      1     75     41       1.000           30.00    
   6682      1     75     42       1.000           30.00    
   6683      1     75     43       1.000           30.00    
   6684      1     75     44       1.000           30.00    
   6685      1     75     45       1.000           30.00    
   6686      1     75     46       1.000           30.00    
   6687      1     75     88       1.000           30.00    
   6688      1     75     89       1.000           30.00    
   6689      1     75     90       1.000           30.00    
   6690      1     75     91       1.000           30.00    
   6691      1     75     92       1.000           30.00    
   6692      1     75     93       1.000           30.00    
   6693      1     75     94       1.000           30.00    
   6694      1     75     95       1.000           30.00    
   6695      1     75     96       1.000           30.00    
   6696      1     75     97       1.000           30.00    
   6697      1     76      2       1.000           30.00    
   6698      1     76      3       1.000           30.00    
   6699      1     76      4       1.000           30.00    
   6700      1     76      5       1.000           30.00    
   6701      1     76      6       1.000           30.00    
   6702      1     76      7       1.000           30.00    
   6703      1     76      8       1.000           30.00    
   6704      1     76      9       1.000           30.00    
   6705      1     76     10       1.000           30.00    
   6706      1     76     11       1.000           30.00    
   6707      1     76     12       1.000           30.00    
   6708      1     76     13       1.000           30.00    
   6709      1     76     14       1.000           30.00    
   6710      1     76     15       1.000           30.00    
   6711      1     76     16       1.000           30.00    
   6712      1     76     17       1.000           30.00    
   6713      1     76     18       1.000           30.00    
   6714      1     76     19       1.000           30.00    
   6715      1     76     20       1.000           30.00    
   6716      1     76     21       1.000           30.00    
   6717      1     76     22       1.000           30.00    
   6718      1     76     23       1.000           30.00    
   6719      1     76     24       1.000           30.00    
   6720      1     76     25       1.000           30.00    
   6721      1     76     26       1.000           30.00    
   6722      1     76     27       1.000           30.00    
   6723      1     76     28       1.000           30.00    
   6724      1     76     29       1.000           30.00    
   6725      1     76     30       1.000           30.00    
   6726      1     76     31       1.000           30.00    
   6727      1     76     32       1.000           30.00    
   6728      1     76     33       1.000           30.00    
   6729      1     76     34       1.000           30.00    
   6730      1     76     35       1.000           30.00    
   6731      1     76     36       1.000           30.00    
   6732      1     76     37       1.000           30.00    
   6733      1     76     38       1.000           30.00    
   6734      1     76     39       1.000           30.00    
   6735      1     76     40       1.000           30.00    
   6736      1     76     41       1.000           30.00    
   6737      1     76     42       1.000           30.00    
   6738      1     76     43       1.000           30.00    
   6739      1     76     44       1.000           30.00    
   6740      1     76     45       1.000           30.00    
   6741      1     76     46       1.000           30.00    
   6742      1     76     89       1.000           30.00    
   6743      1     76     90       1.000           30.00    
   6744      1     76     91       1.000           30.00    
   6745      1     76     92       1.000           30.00    
   6746      1     76     93       1.000           30.00    
   6747      1     76     94       1.000           30.00    
   6748      1     76     95       1.000           30.00    
   6749      1     76     96       1.000           30.00    
   6750      1     77      2       1.000           30.00    
   6751      1     77      3       1.000           30.00    
   6752      1     77      4       1.000           30.00    
   6753      1     77      5       1.000           30.00    
   6754      1     77      6       1.000           30.00    
   6755      1     77      7       1.000           30.00    
   6756      1     77      8       1.000           30.00    
   6757      1     77      9       1.000           30.00    
   6758      1     77     10       1.000           30.00    
   6759      1     77     11       1.000           30.00    
   6760      1     77     12       1.000           30.00    
   6761      1     77     13       1.000           30.00    
   6762      1     77     14       1.000           30.00    
   6763      1     77     15       1.000           30.00    
   6764      1     77     16       1.000           30.00    
   6765      1     77     17       1.000           30.00    
   6766      1     77     18       1.000           30.00    
   6767      1     77     19       1.000           30.00    
   6768      1     77     20       1.000           30.00    
   6769      1     77     21       1.000           30.00    
   6770      1     77     22       1.000           30.00    
   6771      1     77     23       1.000           30.00    
   6772      1     77     24       1.000           30.00    
   6773      1     77     25       1.000           30.00    
   6774      1     77     26       1.000           30.00    
   6775      1     77     27       1.000           30.00    
   6776      1     77     28       1.000           30.00    
   6777      1     77     29       1.000           30.00    
   6778      1     77     30       1.000           30.00    
   6779      1     77     31       1.000           30.00    
   6780      1     77     32       1.000           30.00    
   6781      1     77     33       1.000           30.00    
   6782      1     77     34       1.000           30.00    
   6783      1     77     35       1.000           30.00    
   6784      1     77     36       1.000           30.00    
   6785      1     77     37       1.000           30.00    
   6786      1     77     38       1.000           30.00    
   6787      1     77     39       1.000           30.00    
   6788      1     77     40       1.000           30.00    
   6789      1     77     41       1.000           30.00    
   6790      1     77     42       1.000           30.00    
   6791      1     77     43       1.000           30.00    
   6792      1     77     44       1.000           30.00    
   6793      1     77     45       1.000           30.00    
   6794      1     77     88       1.000           30.00    
   6795      1     77     89       1.000           30.00    
   6796      1     77     90       1.000           30.00    
   6797      1     77     91       1.000           30.00    
   6798      1     77     92       1.000           30.00    
   6799      1     77     93       1.000           30.00    
   6800      1     77     94       1.000           30.00    
   6801      1     77     95       1.000           30.00    
   6802      1     78      2       1.000           30.00    
   6803      1     78      3       1.000           30.00    
   6804      1     78      4       1.000           30.00    
   6805      1     78      5       1.000           30.00    
   6806      1     78      6       1.000           30.00    
   6807      1     78      7       1.000           30.00    
   6808      1     78      8       1.000           30.00    
   6809      1     78      9       1.000           30.00    
   6810      1     78     10       1.000           30.00    
   6811      1     78     11       1.000           30.00    
   6812      1     78     12       1.000           30.00    
   6813      1     78     13       1.000           30.00    
   6814      1     78     14       1.000           30.00    
   6815      1     78     15       1.000           30.00    
   6816      1     78     16       1.000           30.00    
   6817      1     78     17       1.000           30.00    
   6818      1     78     18       1.000           30.00    
   6819      1     78     19       1.000           30.00    
   6820      1     78     20       1.000           30.00    
   6821      1     78     21       1.000           30.00    
   6822      1     78     22       1.000           30.00    
   6823      1     78     23       1.000           30.00    
   6824      1     78     24       1.000           30.00    
   6825      1     78     25       1.000           30.00    
   6826      1     78     26       1.000           30.00    
   6827      1     78     27       1.000           30.00    
   6828      1     78     28       1.000           30.00    
   6829      1     78     29       1.000           30.00    
   6830      1     78     30       1.000           30.00    
   6831      1     78     31       1.000           30.00    
   6832      1     78     32       1.000           30.00    
   6833      1     78     33       1.000           30.00    
   6834      1     78     34       1.000           30.00    
   6835      1     78     35       1.000           30.00    
   6836      1     78     36       1.000           30.00    
   6837      1     78     37       1.000           30.00    
   6838      1     78     38       1.000           30.00    
   6839      1     78     39       1.000           30.00    
   6840      1     78     40       1.000           30.00    
   6841      1     78     41       1.000           30.00    
   6842      1     78     42       1.000           30.00    
   6843      1     78     43       1.000           30.00    
   6844      1     78     44       1.000           30.00    
   6845      1     78     45       1.000           30.00    
   6846      1     78     46       1.000           30.00    
   6847      1     78     87       1.000           30.00    
   6848      1     78     88       1.000           30.00    
   6849      1     78     89       1.000           30.00    
   6850      1     78     90       1.000           30.00    
   6851      1     78     91       1.000           30.00    
   6852      1     78     92       1.000           30.00    
   6853      1     78     93       1.000           30.00    
   6854      1     78     94       1.000           30.00    
   6855      1     79      2       1.000           30.00    
   6856      1     79      3       1.000           30.00    
   6857      1     79      4       1.000           30.00    
   6858      1     79      5       1.000           30.00    
   6859      1     79      6       1.000           30.00    
   6860      1     79      7       1.000           30.00    
   6861      1     79      8       1.000           30.00    
   6862      1     79      9       1.000           30.00    
   6863      1     79     10       1.000           30.00    
   6864      1     79     11       1.000           30.00    
   6865      1     79     12       1.000           30.00    
   6866      1     79     13       1.000           30.00    
   6867      1     79     14       1.000           30.00    
   6868      1     79     15       1.000           30.00    
   6869      1     79     16       1.000           30.00    
   6870      1     79     17       1.000           30.00    
   6871      1     79     18       1.000           30.00    
   6872      1     79     19       1.000           30.00    
   6873      1     79     20       1.000           30.00    
   6874      1     79     21       1.000           30.00    
   6875      1     79     22       1.000           30.00    
   6876      1     79     23       1.000           30.00    
   6877      1     79     24       1.000           30.00    
   6878      1     79     25       1.000           30.00    
   6879      1     79     26       1.000           30.00    
   6880      1     79     27       1.000           30.00    
   6881      1     79     28       1.000           30.00    
   6882      1     79     29       1.000           30.00    
   6883      1     79     30       1.000           30.00    
   6884      1     79     31       1.000           30.00    
   6885      1     79     32       1.000           30.00    
   6886      1     79     33       1.000           30.00    
   6887      1     79     34       1.000           30.00    
   6888      1     79     35       1.000           30.00    
   6889      1     79     36       1.000           30.00    
   6890      1     79     37       1.000           30.00    
   6891      1     79     38       1.000           30.00    
   6892      1     79     39       1.000           30.00    
   6893      1     79     40       1.000           30.00    
   6894      1     79     41       1.000           30.00    
   6895      1     79     42       1.000           30.00    
   6896      1     79     43       1.000           30.00    
   6897      1     79     44       1.000           30.00    
   6898      1     79     45       1.000           30.00    
   6899      1     79     46       1.000           30.00    
   6900      1     79     85       1.000           30.00    
   6901      1     79     86       1.000           30.00    
   6902      1     79     87       1.000           30.00    
   6903      1     79     88       1.000           30.00    
   6904      1     79     89       1.000           30.00    
   6905      1     79     90       1.000           30.00    
   6906      1     79     91       1.000           30.00    
   6907      1     79     92       1.000           30.00    
   6908      1     79     93       1.000           30.00    
   6909      1     80      2       1.000           30.00    
   6910      1     80      3       1.000           30.00    
   6911      1     80      4       1.000           30.00    
   6912      1     80      5       1.000           30.00    
   6913      1     80      6       1.000           30.00    
   6914      1     80      7       1.000           30.00    
   6915      1     80      8       1.000           30.00    
   6916      1     80      9       1.000           30.00    
   6917      1     80     10       1.000           30.00    
   6918      1     80     11       1.000           30.00    
   6919      1     80     12       1.000           30.00    
   6920      1     80     13       1.000           30.00    
   6921      1     80     14       1.000           30.00    
   6922      1     80     15       1.000           30.00    
   6923      1     80     16       1.000           30.00    
   6924      1     80     17       1.000           30.00    
   6925      1     80     18       1.000           30.00    
   6926      1     80     19       1.000           30.00    
   6927      1     80     20       1.000           30.00    
   6928      1     80     21       1.000           30.00    
   6929      1     80     22       1.000           30.00    
   6930      1     80     23       1.000           30.00    
   6931      1     80     24       1.000           30.00    
   6932      1     80     25       1.000           30.00    
   6933      1     80     26       1.000           30.00    
   6934      1     80     27       1.000           30.00    
   6935      1     80     28       1.000           30.00    
   6936      1     80     29       1.000           30.00    
   6937      1     80     30       1.000           30.00    
   6938      1     80     31       1.000           30.00    
   6939      1     80     32       1.000           30.00    
   6940      1     80     33       1.000           30.00    
   6941      1     80     34       1.000           30.00    
   6942      1     80     35       1.000           30.00    
   6943      1     80     36       1.000           30.00    
   6944      1     80     37       1.000           30.00    
   6945      1     80     38       1.000           30.00    
   6946      1     80     39       1.000           30.00    
   6947      1     80     40       1.000           30.00    
   6948      1     80     41       1.000           30.00    
   6949      1     80     42       1.000           30.00    
   6950      1     80     43       1.000           30.00    
   6951      1     80     44       1.000           30.00    
   6952      1     80     45       1.000           30.00    
   6953      1     80     46       1.000           30.00    
   6954      1     80     47       1.000           30.00    
   6955      1     80     84       1.000           30.00    
   6956      1     80     85       1.000           30.00    
   6957      1     80     86       1.000           30.00    
   6958      1     80     87       1.000           30.00    
   6959      1     80     88       1.000           30.00    
   6960      1     80     89       1.000           30.00    
   6961      1     80     90       1.000           30.00    
   6962      1     80     91       1.000           30.00    
   6963      1     80     92       1.000           30.00    
   6964      1     81      2       1.000           30.00    
   6965      1     81      3       1.000           30.00    
   6966      1     81      4       1.000           30.00    
   6967      1     81      5       1.000           30.00    
   6968      1     81      6       1.000           30.00    
   6969      1     81      7       1.000           30.00    
   6970      1     81      8       1.000           30.00    
   6971      1     81      9       1.000           30.00    
   6972      1     81     10       1.000           30.00    
   6973      1     81     11       1.000           30.00    
   6974      1     81     12       1.000           30.00    
   6975      1     81     13       1.000           30.00    
   6976      1     81     14       1.000           30.00    
   6977      1     81     15       1.000           30.00    
   6978      1     81     16       1.000           30.00    
   6979      1     81     17       1.000           30.00    
   6980      1     81     18       1.000           30.00    
   6981      1     81     19       1.000           30.00    
   6982      1     81     20       1.000           30.00    
   6983      1     81     21       1.000           30.00    
   6984      1     81     22       1.000           30.00    
   6985      1     81     23       1.000           30.00    
   6986      1     81     24       1.000           30.00    
   6987      1     81     25       1.000           30.00    
   6988      1     81     26       1.000           30.00    
   6989      1     81     27       1.000           30.00    
   6990      1     81     28       1.000           30.00    
   6991      1     81     29       1.000           30.00    
   6992      1     81     30       1.000           30.00    
   6993      1     81     31       1.000           30.00    
   6994      1     81     32       1.000           30.00    
   6995      1     81     33       1.000           30.00    
   6996      1     81     34       1.000           30.00    
   6997      1     81     35       1.000           30.00    
   6998      1     81     36       1.000           30.00    
   6999      1     81     37       1.000           30.00    
   7000      1     81     38       1.000           30.00    
   7001      1     81     39       1.000           30.00    
   7002      1     81     40       1.000           30.00    
   7003      1     81     41       1.000           30.00    
   7004      1     81     42       1.000           30.00    
   7005      1     81     43       1.000           30.00    
   7006      1     81     44       1.000           30.00    
   7007      1     81     45       1.000           30.00    
   7008      1     81     46       1.000           30.00    
   7009      1     81     47       1.000           30.00    
   7010      1     81     83       1.000           30.00    
   7011      1     81     84       1.000           30.00    
   7012      1     81     85       1.000           30.00    
   7013      1     81     86       1.000           30.00    
   7014      1     81     87       1.000           30.00    
   7015      1     81     88       1.000           30.00    
   7016      1     81     89       1.000           30.00    
   7017      1     81     90       1.000           30.00    
   7018      1     81     91       1.000           30.00    
   7019      1     81     92       1.000           30.00    
   7020      1     82      2       1.000           30.00    
   7021      1     82      3       1.000           30.00    
   7022      1     82      4       1.000           30.00    
   7023      1     82      5       1.000           30.00    
   7024      1     82      6       1.000           30.00    
   7025      1     82      7       1.000           30.00    
   7026      1     82      8       1.000           30.00    
   7027      1     82      9       1.000           30.00    
   7028      1     82     10       1.000           30.00    
   7029      1     82     11       1.000           30.00    
   7030      1     82     12       1.000           30.00    
   7031      1     82     13       1.000           30.00    
   7032      1     82     14       1.000           30.00    
   7033      1     82     15       1.000           30.00    
   7034      1     82     16       1.000           30.00    
   7035      1     82     17       1.000           30.00    
   7036      1     82     18       1.000           30.00    
   7037      1     82     19       1.000           30.00    
   7038      1     82     20       1.000           30.00    
   7039      1     82     21       1.000           30.00    
   7040      1     82     22       1.000           30.00    
   7041      1     82     23       1.000           30.00    
   7042      1     82     24       1.000           30.00    
   7043      1     82     25       1.000           30.00    
   7044      1     82     26       1.000           30.00    
   7045      1     82     27       1.000           30.00    
   7046      1     82     28       1.000           30.00    
   7047      1     82     29       1.000           30.00    
   7048      1     82     30       1.000           30.00    
   7049      1     82     31       1.000           30.00    
   7050      1     82     32       1.000           30.00    
   7051      1     82     33       1.000           30.00    
   7052      1     82     34       1.000           30.00    
   7053      1     82     35       1.000           30.00    
   7054      1     82     36       1.000           30.00    
   7055      1     82     37       1.000           30.00    
   7056      1     82     38       1.000           30.00    
   7057      1     82     39       1.000           30.00    
   7058      1     82     40       1.000           30.00    
   7059      1     82     41       1.000           30.00    
   7060      1     82     42       1.000           30.00    
   7061      1     82     43       1.000           30.00    
   7062      1     82     44       1.000           30.00    
   7063      1     82     45       1.000           30.00    
   7064      1     82     46       1.000           30.00    
   7065      1     82     47       1.000           30.00    
   7066      1     82     83       1.000           30.00    
   7067      1     82     84       1.000           30.00    
   7068      1     82     85       1.000           30.00    
   7069      1     82     86       1.000           30.00    
   7070      1     82     87       1.000           30.00    
   7071      1     82     88       1.000           30.00    
   7072      1     82     89       1.000           30.00    
   7073      1     82     90       1.000           30.00    
   7074      1     82     91       1.000           30.00    
   7075      1     83      2       1.000           30.00    
   7076      1     83      3       1.000           30.00    
   7077      1     83      4       1.000           30.00    
   7078      1     83      5       1.000           30.00    
   7079      1     83      6       1.000           30.00    
   7080      1     83      7       1.000           30.00    
   7081      1     83      8       1.000           30.00    
   7082      1     83      9       1.000           30.00    
   7083      1     83     10       1.000           30.00    
   7084      1     83     11       1.000           30.00    
   7085      1     83     12       1.000           30.00    
   7086      1     83     13       1.000           30.00    
   7087      1     83     14       1.000           30.00    
   7088      1     83     15       1.000           30.00    
   7089      1     83     16       1.000           30.00    
   7090      1     83     17       1.000           30.00    
   7091      1     83     18       1.000           30.00    
   7092      1     83     19       1.000           30.00    
   7093      1     83     20       1.000           30.00    
   7094      1     83     21       1.000           30.00    
   7095      1     83     22       1.000           30.00    
   7096      1     83     23       1.000           30.00    
   7097      1     83     24       1.000           30.00    
   7098      1     83     25       1.000           30.00    
   7099      1     83     26       1.000           30.00    
   7100      1     83     27       1.000           30.00    
   7101      1     83     28       1.000           30.00    
   7102      1     83     29       1.000           30.00    
   7103      1     83     30       1.000           30.00    
   7104      1     83     31       1.000           30.00    
   7105      1     83     32       1.000           30.00    
   7106      1     83     33       1.000           30.00    
   7107      1     83     34       1.000           30.00    
   7108      1     83     35       1.000           30.00    
   7109      1     83     36       1.000           30.00    
   7110      1     83     37       1.000           30.00    
   7111      1     83     38       1.000           30.00    
   7112      1     83     39       1.000           30.00    
   7113      1     83     40       1.000           30.00    
   7114      1     83     41       1.000           30.00    
   7115      1     83     42       1.000           30.00    
   7116      1     83     43       1.000           30.00    
   7117      1     83     44       1.000           30.00    
   7118      1     83     45       1.000           30.00    
   7119      1     83     46       1.000           30.00    
   7120      1     83     47       1.000           30.00    
   7121      1     83     82       1.000           30.00    
   7122      1     83     83       1.000           30.00    
   7123      1     83     84       1.000           30.00    
   7124      1     83     85       1.000           30.00    
   7125      1     83     86       1.000           30.00    
   7126      1     83     87       1.000           30.00    
   7127      1     83     88       1.000           30.00    
   7128      1     83     89       1.000           30.00    
   7129      1     83     90       1.000           30.00    
   7130      1     84      2       1.000           30.00    
   7131      1     84      3       1.000           30.00    
   7132      1     84      4       1.000           30.00    
   7133      1     84      5       1.000           30.00    
   7134      1     84      6       1.000           30.00    
   7135      1     84      7       1.000           30.00    
   7136      1     84      8       1.000           30.00    
   7137      1     84      9       1.000           30.00    
   7138      1     84     10       1.000           30.00    
   7139      1     84     11       1.000           30.00    
   7140      1     84     12       1.000           30.00    
   7141      1     84     13       1.000           30.00    
   7142      1     84     14       1.000           30.00    
   7143      1     84     15       1.000           30.00    
   7144      1     84     16       1.000           30.00    
   7145      1     84     17       1.000           30.00    
   7146      1     84     18       1.000           30.00    
   7147      1     84     19       1.000           30.00    
   7148      1     84     20       1.000           30.00    
   7149      1     84     21       1.000           30.00    
   7150      1     84     22       1.000           30.00    
   7151      1     84     23       1.000           30.00    
   7152      1     84     24       1.000           30.00    
   7153      1     84     25       1.000           30.00    
   7154      1     84     26       1.000           30.00    
   7155      1     84     27       1.000           30.00    
   7156      1     84     28       1.000           30.00    
   7157      1     84     29       1.000           30.00    
   7158      1     84     30       1.000           30.00    
   7159      1     84     31       1.000           30.00    
   7160      1     84     32       1.000           30.00    
   7161      1     84     33       1.000           30.00    
   7162      1     84     34       1.000           30.00    
   7163      1     84     35       1.000           30.00    
   7164      1     84     36       1.000           30.00    
   7165      1     84     37       1.000           30.00    
   7166      1     84     38       1.000           30.00    
   7167      1     84     39       1.000           30.00    
   7168      1     84     40       1.000           30.00    
   7169      1     84     41       1.000           30.00    
   7170      1     84     42       1.000           30.00    
   7171      1     84     43       1.000           30.00    
   7172      1     84     44       1.000           30.00    
   7173      1     84     45       1.000           30.00    
   7174      1     84     46       1.000           30.00    
   7175      1     84     81       1.000           30.00    
   7176      1     84     82       1.000           30.00    
   7177      1     84     83       1.000           30.00    
   7178      1     84     84       1.000           30.00    
   7179      1     84     85       1.000           30.00    
   7180      1     84     86       1.000           30.00    
   7181      1     84     87       1.000           30.00    
   7182      1     84     88       1.000           30.00    
   7183      1     84     89       1.000           30.00    
   7184      1     85      2       1.000           30.00    
   7185      1     85      3       1.000           30.00    
   7186      1     85      4       1.000           30.00    
   7187      1     85      5       1.000           30.00    
   7188      1     85      6       1.000           30.00    
   7189      1     85      7       1.000           30.00    
   7190      1     85      8       1.000           30.00    
   7191      1     85      9       1.000           30.00    
   7192      1     85     10       1.000           30.00    
   7193      1     85     11       1.000           30.00    
   7194      1     85     12       1.000           30.00    
   7195      1     85     13       1.000           30.00    
   7196      1     85     14       1.000           30.00    
   7197      1     85     15       1.000           30.00    
   7198      1     85     16       1.000           30.00    
   7199      1     85     17       1.000           30.00    
   7200      1     85     18       1.000           30.00    
   7201      1     85     19       1.000           30.00    
   7202      1     85     20       1.000           30.00    
   7203      1     85     21       1.000           30.00    
   7204      1     85     22       1.000           30.00    
   7205      1     85     23       1.000           30.00    
   7206      1     85     24       1.000           30.00    
   7207      1     85     25       1.000           30.00    
   7208      1     85     26       1.000           30.00    
   7209      1     85     27       1.000           30.00    
   7210      1     85     28       1.000           30.00    
   7211      1     85     29       1.000           30.00    
   7212      1     85     30       1.000           30.00    
   7213      1     85     31       1.000           30.00    
   7214      1     85     32       1.000           30.00    
   7215      1     85     33       1.000           30.00    
   7216      1     85     34       1.000           30.00    
   7217      1     85     35       1.000           30.00    
   7218      1     85     36       1.000           30.00    
   7219      1     85     37       1.000           30.00    
   7220      1     85     38       1.000           30.00    
   7221      1     85     39       1.000           30.00    
   7222      1     85     40       1.000           30.00    
   7223      1     85     41       1.000           30.00    
   7224      1     85     42       1.000           30.00    
   7225      1     85     43       1.000           30.00    
   7226      1     85     44       1.000           30.00    
   7227      1     85     45       1.000           30.00    
   7228      1     85     46       1.000           30.00    
   7229      1     85     47       1.000           30.00    
   7230      1     85     79       1.000           30.00    
   7231      1     85     80       1.000           30.00    
   7232      1     85     81       1.000           30.00    
   7233      1     85     82       1.000           30.00    
   7234      1     85     83       1.000           30.00    
   7235      1     85     84       1.000           30.00    
   7236      1     85     85       1.000           30.00    
   7237      1     85     86       1.000           30.00    
   7238      1     85     87       1.000           30.00    
   7239      1     85     88       1.000           30.00    
   7240      1     86      2       1.000           30.00    
   7241      1     86      3       1.000           30.00    
   7242      1     86      4       1.000           30.00    
   7243      1     86      5       1.000           30.00    
   7244      1     86      6       1.000           30.00    
   7245      1     86      7       1.000           30.00    
   7246      1     86      8       1.000           30.00    
   7247      1     86      9       1.000           30.00    
   7248      1     86     10       1.000           30.00    
   7249      1     86     11       1.000           30.00    
   7250      1     86     12       1.000           30.00    
   7251      1     86     13       1.000           30.00    
   7252      1     86     14       1.000           30.00    
   7253      1     86     15       1.000           30.00    
   7254      1     86     16       1.000           30.00    
   7255      1     86     17       1.000           30.00    
   7256      1     86     18       1.000           30.00    
   7257      1     86     19       1.000           30.00    
   7258      1     86     20       1.000           30.00    
   7259      1     86     21       1.000           30.00    
   7260      1     86     22       1.000           30.00    
   7261      1     86     23       1.000           30.00    
   7262      1     86     24       1.000           30.00    
   7263      1     86     25       1.000           30.00    
   7264      1     86     26       1.000           30.00    
   7265      1     86     27       1.000           30.00    
   7266      1     86     28       1.000           30.00    
   7267      1     86     29       1.000           30.00    
   7268      1     86     30       1.000           30.00    
   7269      1     86     31       1.000           30.00    
   7270      1     86     32       1.000           30.00    
   7271      1     86     33       1.000           30.00    
   7272      1     86     34       1.000           30.00    
   7273      1     86     35       1.000           30.00    
   7274      1     86     36       1.000           30.00    
   7275      1     86     37       1.000           30.00    
   7276      1     86     38       1.000           30.00    
   7277      1     86     39       1.000           30.00    
   7278      1     86     40       1.000           30.00    
   7279      1     86     41       1.000           30.00    
   7280      1     86     42       1.000           30.00    
   7281      1     86     43       1.000           30.00    
   7282      1     86     44       1.000           30.00    
   7283      1     86     45       1.000           30.00    
   7284      1     86     46       1.000           30.00    
   7285      1     86     47       1.000           30.00    
   7286      1     86     48       1.000           30.00    
   7287      1     86     49       1.000           30.00    
   7288      1     86     50       1.000           30.00    
   7289      1     86     70       1.000           30.00    
   7290      1     86     79       1.000           30.00    
   7291      1     86     80       1.000           30.00    
   7292      1     86     81       1.000           30.00    
   7293      1     86     82       1.000           30.00    
   7294      1     86     83       1.000           30.00    
   7295      1     86     84       1.000           30.00    
   7296      1     86     85       1.000           30.00    
   7297      1     86     86       1.000           30.00    
   7298      1     86     87       1.000           30.00    
   7299      1     87      2       1.000           30.00    
   7300      1     87      3       1.000           30.00    
   7301      1     87      4       1.000           30.00    
   7302      1     87      5       1.000           30.00    
   7303      1     87      6       1.000           30.00    
   7304      1     87      7       1.000           30.00    
   7305      1     87      8       1.000           30.00    
   7306      1     87      9       1.000           30.00    
   7307      1     87     10       1.000           30.00    
   7308      1     87     11       1.000           30.00    
   7309      1     87     12       1.000           30.00    
   7310      1     87     13       1.000           30.00    
   7311      1     87     14       1.000           30.00    
   7312      1     87     15       1.000           30.00    
   7313      1     87     16       1.000           30.00    
   7314      1     87     17       1.000           30.00    
   7315      1     87     18       1.000           30.00    
   7316      1     87     19       1.000           30.00    
   7317      1     87     20       1.000           30.00    
   7318      1     87     21       1.000           30.00    
   7319      1     87     22       1.000           30.00    
   7320      1     87     23       1.000           30.00    
   7321      1     87     24       1.000           30.00    
   7322      1     87     25       1.000           30.00    
   7323      1     87     26       1.000           30.00    
   7324      1     87     27       1.000           30.00    
   7325      1     87     28       1.000           30.00    
   7326      1     87     29       1.000           30.00    
   7327      1     87     30       1.000           30.00    
   7328      1     87     31       1.000           30.00    
   7329      1     87     32       1.000           30.00    
   7330      1     87     33       1.000           30.00    
   7331      1     87     34       1.000           30.00    
   7332      1     87     35       1.000           30.00    
   7333      1     87     36       1.000           30.00    
   7334      1     87     37       1.000           30.00    
   7335      1     87     38       1.000           30.00    
   7336      1     87     39       1.000           30.00    
   7337      1     87     40       1.000           30.00    
   7338      1     87     41       1.000           30.00    
   7339      1     87     42       1.000           30.00    
   7340      1     87     43       1.000           30.00    
   7341      1     87     44       1.000           30.00    
   7342      1     87     45       1.000           30.00    
   7343      1     87     46       1.000           30.00    
   7344      1     87     47       1.000           30.00    
   7345      1     87     48       1.000           30.00    
   7346      1     87     49       1.000           30.00    
   7347      1     87     50       1.000           30.00    
   7348      1     87     51       1.000           30.00    
   7349      1     87     52       1.000           30.00    
   7350      1     87     69       1.000           30.00    
   7351      1     87     70       1.000           30.00    
   7352      1     87     71       1.000           30.00    
   7353      1     87     78       1.000           30.00    
   7354      1     87     79       1.000           30.00    
   7355      1     87     80       1.000           30.00    
   7356      1     87     81       1.000           30.00    
   7357      1     87     82       1.000           30.00    
   7358      1     87     83       1.000           30.00    
   7359      1     87     84       1.000           30.00    
   7360      1     87     85       1.000           30.00    
   7361      1     87     86       1.000           30.00    
   7362      1     87     87       1.000           30.00    
   7363      1     88      2       1.000           30.00    
   7364      1     88      3       1.000           30.00    
   7365      1     88      4       1.000           30.00    
   7366      1     88      5       1.000           30.00    
   7367      1     88      6       1.000           30.00    
   7368      1     88      7       1.000           30.00    
   7369      1     88      8       1.000           30.00    
   7370      1     88      9       1.000           30.00    
   7371      1     88     10       1.000           30.00    
   7372      1     88     11       1.000           30.00    
   7373      1     88     12       1.000           30.00    
   7374      1     88     13       1.000           30.00    
   7375      1     88     14       1.000           30.00    
   7376      1     88     15       1.000           30.00    
   7377      1     88     16       1.000           30.00    
   7378      1     88     17       1.000           30.00    
   7379      1     88     18       1.000           30.00    
   7380      1     88     19       1.000           30.00    
   7381      1     88     20       1.000           30.00    
   7382      1     88     21       1.000           30.00    
   7383      1     88     22       1.000           30.00    
   7384      1     88     23       1.000           30.00    
   7385      1     88     24       1.000           30.00    
   7386      1     88     25       1.000           30.00    
   7387      1     88     26       1.000           30.00    
   7388      1     88     27       1.000           30.00    
   7389      1     88     28       1.000           30.00    
   7390      1     88     29       1.000           30.00    
   7391      1     88     30       1.000           30.00    
   7392      1     88     31       1.000           30.00    
   7393      1     88     32       1.000           30.00    
   7394      1     88     33       1.000           30.00    
   7395      1     88     34       1.000           30.00    
   7396      1     88     35       1.000           30.00    
   7397      1     88     36       1.000           30.00    
   7398      1     88     37       1.000           30.00    
   7399      1     88     38       1.000           30.00    
   7400      1     88     39       1.000           30.00    
   7401      1     88     40       1.000           30.00    
   7402      1     88     41       1.000           30.00    
   7403      1     88     42       1.000           30.00    
   7404      1     88     43       1.000           30.00    
   7405      1     88     44       1.000           30.00    
   7406      1     88     45       1.000           30.00    
   7407      1     88     46       1.000           30.00    
   7408      1     88     47       1.000           30.00    
   7409      1     88     48       1.000           30.00    
   7410      1     88     49       1.000           30.00    
   7411      1     88     50       1.000           30.00    
   7412      1     88     51       1.000           30.00    
   7413      1     88     52       1.000           30.00    
   7414      1     88     53       1.000           30.00    
   7415      1     88     60       1.000           30.00    
   7416      1     88     61       1.000           30.00    
   7417      1     88     67       1.000           30.00    
   7418      1     88     68       1.000           30.00    
   7419      1     88     69       1.000           30.00    
   7420      1     88     70       1.000           30.00    
   7421      1     88     71       1.000           30.00    
   7422      1     88     72       1.000           30.00    
   7423      1     88     77       1.000           30.00    
   7424      1     88     78       1.000           30.00    
   7425      1     88     79       1.000           30.00    
   7426      1     88     80       1.000           30.00    
   7427      1     88     81       1.000           30.00    
   7428      1     88     82       1.000           30.00    
   7429      1     88     83       1.000           30.00    
   7430      1     88     84       1.000           30.00    
   7431      1     88     85       1.000           30.00    
   7432      1     88     86       1.000           30.00    
   7433      1     89      2       1.000           30.00    
   7434      1     89      3       1.000           30.00    
   7435      1     89      4       1.000           30.00    
   7436      1     89      5       1.000           30.00    
   7437      1     89      6       1.000           30.00    
   7438      1     89      7       1.000           30.00    
   7439      1     89      8       1.000           30.00    
   7440      1     89      9       1.000           30.00    
   7441      1     89     10       1.000           30.00    
   7442      1     89     11       1.000           30.00    
   7443      1     89     12       1.000           30.00    
   7444      1     89     13       1.000           30.00    
   7445      1     89     14       1.000           30.00    
   7446      1     89     15       1.000           30.00    
   7447      1     89     16       1.000           30.00    
   7448      1     89     17       1.000           30.00    
   7449      1     89     18       1.000           30.00    
   7450      1     89     19       1.000           30.00    
   7451      1     89     20       1.000           30.00    
   7452      1     89     21       1.000           30.00    
   7453      1     89     22       1.000           30.00    
   7454      1     89     23       1.000           30.00    
   7455      1     89     24       1.000           30.00    
   7456      1     89     25       1.000           30.00    
   7457      1     89     26       1.000           30.00    
   7458      1     89     27       1.000           30.00    
   7459      1     89     28       1.000           30.00    
   7460      1     89     29       1.000           30.00    
   7461      1     89     30       1.000           30.00    
   7462      1     89     31       1.000           30.00    
   7463      1     89     32       1.000           30.00    
   7464      1     89     33       1.000           30.00    
   7465      1     89     34       1.000           30.00    
   7466      1     89     35       1.000           30.00    
   7467      1     89     36       1.000           30.00    
   7468      1     89     37       1.000           30.00    
   7469      1     89     38       1.000           30.00    
   7470      1     89     39       1.000           30.00    
   7471      1     89     40       1.000           30.00    
   7472      1     89     41       1.000           30.00    
   7473      1     89     42       1.000           30.00    
   7474      1     89     43       1.000           30.00    
   7475      1     89     44       1.000           30.00    
   7476      1     89     45       1.000           30.00    
   7477      1     89     46       1.000           30.00    
   7478      1     89     47       1.000           30.00    
   7479      1     89     48       1.000           30.00    
   7480      1     89     49       1.000           30.00    
   7481      1     89     50       1.000           30.00    
   7482      1     89     51       1.000           30.00    
   7483      1     89     52       1.000           30.00    
   7484      1     89     53       1.000           30.00    
   7485      1     89     54       1.000           30.00    
   7486      1     89     55       1.000           30.00    
   7487      1     89     56       1.000           30.00    
   7488      1     89     58       1.000           30.00    
   7489      1     89     59       1.000           30.00    
   7490      1     89     60       1.000           30.00    
   7491      1     89     61       1.000           30.00    
   7492      1     89     62       1.000           30.00    
   7493      1     89     63       1.000           30.00    
   7494      1     89     68       1.000           30.00    
   7495      1     89     69       1.000           30.00    
   7496      1     89     70       1.000           30.00    
   7497      1     89     71       1.000           30.00    
   7498      1     89     72       1.000           30.00    
   7499      1     89     73       1.000           30.00    
   7500      1     89     77       1.000           30.00    
   7501      1     89     78       1.000           30.00    
   7502      1     89     79       1.000           30.00    
   7503      1     89     80       1.000           30.00    
   7504      1     89     81       1.000           30.00    
   7505      1     89     82       1.000           30.00    
   7506      1     89     83       1.000           30.00    
   7507      1     89     84       1.000           30.00    
   7508      1     89     85       1.000           30.00    
   7509      1     90      2       1.000           30.00    
   7510      1     90      3       1.000           30.00    
   7511      1     90      4       1.000           30.00    
   7512      1     90      5       1.000           30.00    
   7513      1     90      6       1.000           30.00    
   7514      1     90      7       1.000           30.00    
   7515      1     90      8       1.000           30.00    
   7516      1     90      9       1.000           30.00    
   7517      1     90     10       1.000           30.00    
   7518      1     90     11       1.000           30.00    
   7519      1     90     12       1.000           30.00    
   7520      1     90     13       1.000           30.00    
   7521      1     90     14       1.000           30.00    
   7522      1     90     20       1.000           30.00    
   7523      1     90     21       1.000           30.00    
   7524      1     90     22       1.000           30.00    
   7525      1     90     23       1.000           30.00    
   7526      1     90     24       1.000           30.00    
   7527      1     90     25       1.000           30.00    
   7528      1     90     26       1.000           30.00    
   7529      1     90     27       1.000           30.00    
   7530      1     90     28       1.000           30.00    
   7531      1     90     29       1.000           30.00    
   7532      1     90     30       1.000           30.00    
   7533      1     90     31       1.000           30.00    
   7534      1     90     32       1.000           30.00    
   7535      1     90     33       1.000           30.00    
   7536      1     90     34       1.000           30.00    
   7537      1     90     35       1.000           30.00    
   7538      1     90     36       1.000           30.00    
   7539      1     90     37       1.000           30.00    
   7540      1     90     38       1.000           30.00    
   7541      1     90     39       1.000           30.00    
   7542      1     90     40       1.000           30.00    
   7543      1     90     41       1.000           30.00    
   7544      1     90     42       1.000           30.00    
   7545      1     90     43       1.000           30.00    
   7546      1     90     44       1.000           30.00    
   7547      1     90     45       1.000           30.00    
   7548      1     90     46       1.000           30.00    
   7549      1     90     47       1.000           30.00    
   7550      1     90     48       1.000           30.00    
   7551      1     90     49       1.000           30.00    
   7552      1     90     50       1.000           30.00    
   7553      1     90     51       1.000           30.00    
   7554      1     90     52       1.000           30.00    
   7555      1     90     53       1.000           30.00    
   7556      1     90     54       1.000           30.00    
   7557      1     90     55       1.000           30.00    
   7558      1     90     56       1.000           30.00    
   7559      1     90     57       1.000           30.00    
   7560      1     90     58       1.000           30.00    
   7561      1     90     59       1.000           30.00    
   7562      1     90     60       1.000           30.00    
   7563      1     90     61       1.000           30.00    
   7564      1     90     62       1.000           30.00    
   7565      1     90     63       1.000           30.00    
   7566      1     90     68       1.000           30.00    
   7567      1     90     69       1.000           30.00    
   7568      1     90     70       1.000           30.00    
   7569      1     90     71       1.000           30.00    
   7570      1     90     72       1.000           30.00    
   7571      1     90     73       1.000           30.00    
   7572      1     90     74       1.000           30.00    
   7573      1     90     76       1.000           30.00    
   7574      1     90     77       1.000           30.00    
   7575      1     90     78       1.000           30.00    
   7576      1     90     79       1.000           30.00    
   7577      1     90     80       1.000           30.00    
   7578      1     90     81       1.000           30.00    
   7579      1     90     82       1.000           30.00    
   7580      1     90     83       1.000           30.00    
   7581      1     90     84       1.000           30.00    
   7582      1     91      2       1.000           30.00    
   7583      1     91      3       1.000           30.00    
   7584      1     91      4       1.000           30.00    
   7585      1     91      5       1.000           30.00    
   7586      1     91      6       1.000           30.00    
   7587      1     91      7       1.000           30.00    
   7588      1     91      8       1.000           30.00    
   7589      1     91      9       1.000           30.00    
   7590      1     91     24       1.000           30.00    
   7591      1     91     25       1.000           30.00    
   7592      1     91     26       1.000           30.00    
   7593      1     91     27       1.000           30.00    
   7594      1     91     28       1.000           30.00    
   7595      1     91     29       1.000           30.00    
   7596      1     91     30       1.000           30.00    
   7597      1     91     31       1.000           30.00    
   7598      1     91     32       1.000           30.00    
   7599      1     91     33       1.000           30.00    
   7600      1     91     34       1.000           30.00    
   7601      1     91     35       1.000           30.00    
   7602      1     91     36       1.000           30.00    
   7603      1     91     37       1.000           30.00    
   7604      1     91     38       1.000           30.00    
   7605      1     91     39       1.000           30.00    
   7606      1     91     40       1.000           30.00    
   7607      1     91     41       1.000           30.00    
   7608      1     91     42       1.000           30.00    
   7609      1     91     43       1.000           30.00    
   7610      1     91     44       1.000           30.00    
   7611      1     91     45       1.000           30.00    
   7612      1     91     46       1.000           30.00    
   7613      1     91     47       1.000           30.00    
   7614      1     91     48       1.000           30.00    
   7615      1     91     49       1.000           30.00    
   7616      1     91     50       1.000           30.00    
   7617      1     91     51       1.000           30.00    
   7618      1     91     52       1.000           30.00    
   7619      1     91     53       1.000           30.00    
   7620      1     91     54       1.000           30.00    
   7621      1     91     55       1.000           30.00    
   7622      1     91     56       1.000           30.00    
   7623      1     91     57       1.000           30.00    
   7624      1     91     58       1.000           30.00    
   7625      1     91     59       1.000           30.00    
   7626      1     91     60       1.000           30.00    
   7627      1     91     61       1.000           30.00    
   7628      1     91     62       1.000           30.00    
   7629      1     91     63       1.000           30.00    
   7630      1     91     68       1.000           30.00    
   7631      1     91     69       1.000           30.00    
   7632      1     91     70       1.000           30.00    
   7633      1     91     71       1.000           30.00    
   7634      1     91     72       1.000           30.00    
   7635      1     91     73       1.000           30.00    
   7636      1     91     74       1.000           30.00    
   7637      1     91     75       1.000           30.00    
   7638      1     91     76       1.000           30.00    
   7639      1     91     77       1.000           30.00    
   7640      1     91     78       1.000           30.00    
   7641      1     91     79       1.000           30.00    
   7642      1     91     80       1.000           30.00    
   7643      1     91     81       1.000           30.00    
   7644      1     91     82       1.000           30.00    
   7645      1     91     83       1.000           30.00    
   7646      1     92      2       1.000           30.00    
   7647      1     92      3       1.000           30.00    
   7648      1     92      4       1.000           30.00    
   7649      1     92     29       1.000           30.00    
   7650      1     92     30       1.000           30.00    
   7651      1     92     31       1.000           30.00    
   7652      1     92     32       1.000           30.00    
   7653      1     92     33       1.000           30.00    
   7654      1     92     34       1.000           30.00    
   7655      1     92     35       1.000           30.00    
   7656      1     92     36       1.000           30.00    
   7657      1     92     37       1.000           30.00    
   7658      1     92     38       1.000           30.00    
   7659      1     92     39       1.000           30.00    
   7660      1     92     40       1.000           30.00    
   7661      1     92     41       1.000           30.00    
   7662      1     92     42       1.000           30.00    
   7663      1     92     43       1.000           30.00    
   7664      1     92     44       1.000           30.00    
   7665      1     92     45       1.000           30.00    
   7666      1     92     46       1.000           30.00    
   7667      1     92     47       1.000           30.00    
   7668      1     92     48       1.000           30.00    
   7669      1     92     49       1.000           30.00    
   7670      1     92     50       1.000           30.00    
   7671      1     92     51       1.000           30.00    
   7672      1     92     52       1.000           30.00    
   7673      1     92     53       1.000           30.00    
   7674      1     92     54       1.000           30.00    
   7675      1     92     55       1.000           30.00    
   7676      1     92     56       1.000           30.00    
   7677      1     92     57       1.000           30.00    
   7678      1     92     58       1.000           30.00    
   7679      1     92     59       1.000           30.00    
   7680      1     92     60       1.000           30.00    
   7681      1     92     61       1.000           30.00    
   7682      1     92     67       1.000           30.00    
   7683      1     92     68       1.000           30.00    
   7684      1     92     69       1.000           30.00    
   7685      1     92     70       1.000           30.00    
   7686      1     92     71       1.000           30.00    
   7687      1     92     72       1.000           30.00    
   7688      1     92     73       1.000           30.00    
   7689      1     92     74       1.000           30.00    
   7690      1     92     75       1.000           30.00    
   7691      1     92     76       1.000           30.00    
   7692      1     92     77       1.000           30.00    
   7693      1     92     78       1.000           30.00    
   7694      1     92     79       1.000           30.00    
   7695      1     92     80       1.000           30.00    
   7696      1     92     81       1.000           30.00    
   7697      1     92     82       1.000           30.00    
   7698      1     93     33       1.000           30.00    
   7699      1     93     34       1.000           30.00    
   7700      1     93     35       1.000           30.00    
   7701      1     93     36       1.000           30.00    
   7702      1     93     37       1.000           30.00    
   7703      1     93     38       1.000           30.00    
   7704      1     93     39       1.000           30.00    
   7705      1     93     40       1.000           30.00    
   7706      1     93     41       1.000           30.00    
   7707      1     93     42       1.000           30.00    
   7708      1     93     43       1.000           30.00    
   7709      1     93     44       1.000           30.00    
   7710      1     93     45       1.000           30.00    
   7711      1     93     46       1.000           30.00    
   7712      1     93     47       1.000           30.00    
   7713      1     93     48       1.000           30.00    
   7714      1     93     49       1.000           30.00    
   7715      1     93     50       1.000           30.00    
   7716      1     93     51       1.000           30.00    
   7717      1     93     52       1.000           30.00    
   7718      1     93     53       1.000           30.00    
   7719      1     93     54       1.000           30.00    
   7720      1     93     55       1.000           30.00    
   7721      1     93     56       1.000           30.00    
   7722      1     93     57       1.000           30.00    
   7723      1     93     58       1.000           30.00    
   7724      1     93     59       1.000           30.00    
   7725      1     93     60       1.000           30.00    
   7726      1     93     61       1.000           30.00    
   7727      1     93     62       1.000           30.00    
   7728      1     93     66       1.000           30.00    
   7729      1     93     67       1.000           30.00    
   7730      1     93     68       1.000           30.00    
   7731      1     93     69       1.000           30.00    
   7732      1     93     70       1.000           30.00    
   7733      1     93     71       1.000           30.00    
   7734      1     93     72       1.000           30.00    
   7735      1     93     73       1.000           30.00    
   7736      1     93     74       1.000           30.00    
   7737      1     93     75       1.000           30.00    
   7738      1     93     76       1.000           30.00    
   7739      1     93     77       1.000           30.00    
   7740      1     93     78       1.000           30.00    
   7741      1     93     79       1.000           30.00    
   7742      1     94     39       1.000           30.00    
   7743      1     94     40       1.000           30.00    
   7744      1     94     41       1.000           30.00    
   7745      1     94     42       1.000           30.00    
   7746      1     94     43       1.000           30.00    
   7747      1     94     44       1.000           30.00    
   7748      1     94     45       1.000           30.00    
   7749      1     94     46       1.000           30.00    
   7750      1     94     47       1.000           30.00    
   7751      1     94     48       1.000           30.00    
   7752      1     94     49       1.000           30.00    
   7753      1     94     50       1.000           30.00    
   7754      1     94     51       1.000           30.00    
   7755      1     94     52       1.000           30.00    
   7756      1     94     53       1.000           30.00    
   7757      1     94     54       1.000           30.00    
   7758      1     94     55       1.000           30.00    
   7759      1     94     56       1.000           30.00    
   7760      1     94     57       1.000           30.00    
   7761      1     94     58       1.000           30.00    
   7762      1     94     59       1.000           30.00    
   7763      1     94     60       1.000           30.00    
   7764      1     94     61       1.000           30.00    
   7765      1     94     62       1.000           30.00    
   7766      1     94     66       1.000           30.00    
   7767      1     94     67       1.000           30.00    
   7768      1     94     68       1.000           30.00    
   7769      1     94     69       1.000           30.00    
   7770      1     94     70       1.000           30.00    
   7771      1     94     71       1.000           30.00    
   7772      1     94     72       1.000           30.00    
   7773      1     94     73       1.000           30.00    
   7774      1     94     74       1.000           30.00    
   7775      1     94     75       1.000           30.00    
   7776      1     94     76       1.000           30.00    
   7777      1     94     77       1.000           30.00    
   7778      1     95     43       1.000           30.00    
   7779      1     95     44       1.000           30.00    
   7780      1     95     45       1.000           30.00    
   7781      1     95     46       1.000           30.00    
   7782      1     95     47       1.000           30.00    
   7783      1     95     48       1.000           30.00    
   7784      1     95     49       1.000           30.00    
   7785      1     95     50       1.000           30.00    
   7786      1     95     51       1.000           30.00    
   7787      1     95     52       1.000           30.00    
   7788      1     95     53       1.000           30.00    
   7789      1     95     54       1.000           30.00    
   7790      1     95     55       1.000           30.00    
   7791      1     95     56       1.000           30.00    
   7792      1     95     57       1.000           30.00    
   7793      1     95     58       1.000           30.00    
   7794      1     95     59       1.000           30.00    
   7795      1     95     60       1.000           30.00    
   7796      1     95     61       1.000           30.00    
   7797      1     95     62       1.000           30.00    
   7798      1     95     63       1.000           30.00    
   7799      1     95     65       1.000           30.00    
   7800      1     95     66       1.000           30.00    
   7801      1     95     67       1.000           30.00    
   7802      1     95     68       1.000           30.00    
   7803      1     95     69       1.000           30.00    
   7804      1     95     70       1.000           30.00    
   7805      1     95     71       1.000           30.00    
   7806      1     95     72       1.000           30.00    
   7807      1     95     73       1.000           30.00    
   7808      1     95     74       1.000           30.00    
   7809      1     95     75       1.000           30.00    
   7810      1     96     46       1.000           30.00    
   7811      1     96     47       1.000           30.00    
   7812      1     96     48       1.000           30.00    
   7813      1     96     49       1.000           30.00    
   7814      1     96     50       1.000           30.00    
   7815      1     96     51       1.000           30.00    
   7816      1     96     52       1.000           30.00    
   7817      1     96     53       1.000           30.00    
   7818      1     96     54       1.000           30.00    
   7819      1     96     55       1.000           30.00    
   7820      1     96     56       1.000           30.00    
   7821      1     96     57       1.000           30.00    
   7822      1     96     58       1.000           30.00    
   7823      1     96     59       1.000           30.00    
   7824      1     96     60       1.000           30.00    
   7825      1     96     61       1.000           30.00    
   7826      1     96     62       1.000           30.00    
   7827      1     96     63       1.000           30.00    
   7828      1     96     64       1.000           30.00    
   7829      1     96     65       1.000           30.00    
   7830      1     96     66       1.000           30.00    
   7831      1     96     67       1.000           30.00    
   7832      1     96     68       1.000           30.00    
   7833      1     96     69       1.000           30.00    
   7834      1     96     70       1.000           30.00    
   7835      1     96     71       1.000           30.00    
   7836      1     96     72       1.000           30.00    
   7837      1     97     49       1.000           30.00    
   7838      1     97     50       1.000           30.00    
   7839      1     97     51       1.000           30.00    
   7840      1     97     52       1.000           30.00    
   7841      1     97     53       1.000           30.00    
   7842      1     97     54       1.000           30.00    
   7843      1     97     55       1.000           30.00    
   7844      1     97     56       1.000           30.00    
   7845      1     97     57       1.000           30.00    
   7846      1     97     58       1.000           30.00    
   7847      1     97     59       1.000           30.00    
   7848      1     97     60       1.000           30.00    
   7849      1     97     61       1.000           30.00    
   7850      1     97     62       1.000           30.00    
   7851      1     97     63       1.000           30.00    
   7852      1     97     64       1.000           30.00    
   7853      1     97     65       1.000           30.00    
   7854      1     97     66       1.000           30.00    
   7855      1     97     67       1.000           30.00    
   7856      1     97     68       1.000           30.00    
   7857      1     97     69       1.000           30.00    
   7858      1     98     53       1.000           30.00    
   7859      1     98     54       1.000           30.00    
   7860      1     98     55       1.000           30.00    
   7861      1     98     56       1.000           30.00    
   7862      1     98     57       1.000           30.00    
   7863      1     98     58       1.000           30.00    
   7864      1     98     59       1.000           30.00    
   7865      1     98     60       1.000           30.00    
   7866      1     98     61       1.000           30.00    
   7867      1     98     62       1.000           30.00    
   7868      1     98     63       1.000           30.00    
   7869      1     98     64       1.000           30.00    
   7870      1     98     65       1.000           30.00    
   7871      1     98     66       1.000           30.00    
   7872      1     99     58       1.000           30.00    
   7873      1     99     59       1.000           30.00    
   7874      1     99     60       1.000           30.00    
   7875      1     99     61       1.000           30.00    
   7876      1     99     62       1.000           30.00    

   7876 GHB CELLS



                           RECHARGE
 READING ON UNIT   19 WITH FORMAT: (200E15.6)          
 
 SOLVING FOR HEAD 

 NO OUTPUT CONTROL FOR STRESS PERIOD    1   TIME STEP    1
 SOLVING FOR ZETA FOR LAYER     1 ZONE     2

    6383 UPPER PART EQS.      6377 LOWER PART EQS.    BAND WIDTH + 1 =   99
 STRESS PERIOD=  1 TIMESTEP=  1 LAYER=  1 ZONE=  2 ACTIVE CELLS=12760 NUMBER OF EQUATIONS=   12760

 HEAD OBS#   36, ID Pago100(wate IS DRY -- OMIT (OBS2BAS7SE)

 HEAD OBS#   38, ID PAGOTANK24   IS DRY -- OMIT (OBS2BAS7SE)

 HEAD OBS#   54, ID VATI170      IS DRY -- OMIT (OBS2BAS7SE)
 
 SOLVING FOR HEAD 

 NO OUTPUT CONTROL FOR STRESS PERIOD    1   TIME STEP    2
 SOLVING FOR ZETA FOR LAYER     1 ZONE     2
 STRESS PERIOD=  1 TIMESTEP=  2 LAYER=  1 ZONE=  2 ACTIVE CELLS=12760 NUMBER OF EQUATIONS=   12760
 
 SOLVING FOR HEAD 

 NO OUTPUT CONTROL FOR STRESS PERIOD    1   TIME STEP    3
 SOLVING FOR ZETA FOR LAYER     1 ZONE     2
 STRESS PERIOD=  1 TIMESTEP=  3 LAYER=  1 ZONE=  2 ACTIVE CELLS=12760 NUMBER OF EQUATIONS=   12760
 
 SOLVING FOR HEAD 

 NO OUTPUT CONTROL FOR STRESS PERIOD    1   TIME STEP    4
 SOLVING FOR ZETA FOR LAYER     1 ZONE     2
 STRESS PERIOD=  1 TIMESTEP=  4 LAYER=  1 ZONE=  2 ACTIVE CELLS=12760 NUMBER OF EQUATIONS=   12760
 
 SOLVING FOR HEAD 

 NO OUTPUT CONTROL FOR STRESS PERIOD    1   TIME STEP    5
 SOLVING FOR ZETA FOR LAYER     1 ZONE     2
 STRESS PERIOD=  1 TIMESTEP=  5 LAYER=  1 ZONE=  2 ACTIVE CELLS=12760 NUMBER OF EQUATIONS=   12760
 
 SOLVING FOR HEAD 

 NO OUTPUT CONTROL FOR STRESS PERIOD    1   TIME STEP    6
 SOLVING FOR ZETA FOR LAYER     1 ZONE     2
 STRESS PERIOD=  1 TIMESTEP=  6 LAYER=  1 ZONE=  2 ACTIVE CELLS=12760 NUMBER OF EQUATIONS=   12760
 
 SOLVING FOR HEAD 

 NO OUTPUT CONTROL FOR STRESS PERIOD    1   TIME STEP    7
 SOLVING FOR ZETA FOR LAYER     1 ZONE     2
 STRESS PERIOD=  1 TIMESTEP=  7 LAYER=  1 ZONE=  2 ACTIVE CELLS=12760 NUMBER OF EQUATIONS=   12760
 
 SOLVING FOR HEAD 

 NO OUTPUT CONTROL FOR STRESS PERIOD    1   TIME STEP    8
 SOLVING FOR ZETA FOR LAYER     1 ZONE     2
 STRESS PERIOD=  1 TIMESTEP=  8 LAYER=  1 ZONE=  2 ACTIVE CELLS=12760 NUMBER OF EQUATIONS=   12760
 
 SOLVING FOR HEAD 

 NO OUTPUT CONTROL FOR STRESS PERIOD    1   TIME STEP    9
 SOLVING FOR ZETA FOR LAYER     1 ZONE     2
 STRESS PERIOD=  1 TIMESTEP=  9 LAYER=  1 ZONE=  2 ACTIVE CELLS=12760 NUMBER OF EQUATIONS=   12760
 
 SOLVING FOR HEAD 

 NO OUTPUT CONTROL FOR STRESS PERIOD    1   TIME STEP   10
 SOLVING FOR ZETA FOR LAYER     1 ZONE     2
 STRESS PERIOD=  1 TIMESTEP= 10 LAYER=  1 ZONE=  2 ACTIVE CELLS=12760 NUMBER OF EQUATIONS=   12760
 
 SOLVING FOR HEAD 

 NO OUTPUT CONTROL FOR STRESS PERIOD    1   TIME STEP   11
 SOLVING FOR ZETA FOR LAYER     1 ZONE     2
 STRESS PERIOD=  1 TIMESTEP= 11 LAYER=  1 ZONE=  2 ACTIVE CELLS=12760 NUMBER OF EQUATIONS=   12760
 
 SOLVING FOR HEAD 

 NO OUTPUT CONTROL FOR STRESS PERIOD    1   TIME STEP   12
 SOLVING FOR ZETA FOR LAYER     1 ZONE     2
 STRESS PERIOD=  1 TIMESTEP= 12 LAYER=  1 ZONE=  2 ACTIVE CELLS=12760 NUMBER OF EQUATIONS=   12760
 
 SOLVING FOR HEAD 

 NO OUTPUT CONTROL FOR STRESS PERIOD    1   TIME STEP   13
 SOLVING FOR ZETA FOR LAYER     1 ZONE     2
 STRESS PERIOD=  1 TIMESTEP= 13 LAYER=  1 ZONE=  2 ACTIVE CELLS=12760 NUMBER OF EQUATIONS=   12760
 
 SOLVING FOR HEAD 

 NO OUTPUT CONTROL FOR STRESS PERIOD    1   TIME STEP   14
 SOLVING FOR ZETA FOR LAYER     1 ZONE     2
 STRESS PERIOD=  1 TIMESTEP= 14 LAYER=  1 ZONE=  2 ACTIVE CELLS=12760 NUMBER OF EQUATIONS=   12760
 
 SOLVING FOR HEAD 

 NO OUTPUT CONTROL FOR STRESS PERIOD    1   TIME STEP   15
 SOLVING FOR ZETA FOR LAYER     1 ZONE     2
 STRESS PERIOD=  1 TIMESTEP= 15 LAYER=  1 ZONE=  2 ACTIVE CELLS=12760 NUMBER OF EQUATIONS=   12760
 
 SOLVING FOR HEAD 

 NO OUTPUT CONTROL FOR STRESS PERIOD    1   TIME STEP   16
 SOLVING FOR ZETA FOR LAYER     1 ZONE     2
 STRESS PERIOD=  1 TIMESTEP= 16 LAYER=  1 ZONE=  2 ACTIVE CELLS=12760 NUMBER OF EQUATIONS=   12760
 
 SOLVING FOR HEAD 

 NO OUTPUT CONTROL FOR STRESS PERIOD    1   TIME STEP   17
 SOLVING FOR ZETA FOR LAYER     1 ZONE     2
 STRESS PERIOD=  1 TIMESTEP= 17 LAYER=  1 ZONE=  2 ACTIVE CELLS=12760 NUMBER OF EQUATIONS=   12760
 
 SOLVING FOR HEAD 

 NO OUTPUT CONTROL FOR STRESS PERIOD    1   TIME STEP   18
 SOLVING FOR ZETA FOR LAYER     1 ZONE     2
 STRESS PERIOD=  1 TIMESTEP= 18 LAYER=  1 ZONE=  2 ACTIVE CELLS=12760 NUMBER OF EQUATIONS=   12760
 
 SOLVING FOR HEAD 

 NO OUTPUT CONTROL FOR STRESS PERIOD    1   TIME STEP   19
 SOLVING FOR ZETA FOR LAYER     1 ZONE     2
 STRESS PERIOD=  1 TIMESTEP= 19 LAYER=  1 ZONE=  2 ACTIVE CELLS=12760 NUMBER OF EQUATIONS=   12760
 
 SOLVING FOR HEAD 

 NO OUTPUT CONTROL FOR STRESS PERIOD    1   TIME STEP   20
 SOLVING FOR ZETA FOR LAYER     1 ZONE     2
 STRESS PERIOD=  1 TIMESTEP= 20 LAYER=  1 ZONE=  2 ACTIVE CELLS=12760 NUMBER OF EQUATIONS=   12760
 
 SOLVING FOR HEAD 

 NO OUTPUT CONTROL FOR STRESS PERIOD    1   TIME STEP   21
 SOLVING FOR ZETA FOR LAYER     1 ZONE     2
 STRESS PERIOD=  1 TIMESTEP= 21 LAYER=  1 ZONE=  2 ACTIVE CELLS=12760 NUMBER OF EQUATIONS=   12760
 
 SOLVING FOR HEAD 

 NO OUTPUT CONTROL FOR STRESS PERIOD    1   TIME STEP   22
 SOLVING FOR ZETA FOR LAYER     1 ZONE     2
 STRESS PERIOD=  1 TIMESTEP= 22 LAYER=  1 ZONE=  2 ACTIVE CELLS=12760 NUMBER OF EQUATIONS=   12760
 
 SOLVING FOR HEAD 

 NO OUTPUT CONTROL FOR STRESS PERIOD    1   TIME STEP   23
 SOLVING FOR ZETA FOR LAYER     1 ZONE     2
 STRESS PERIOD=  1 TIMESTEP= 23 LAYER=  1 ZONE=  2 ACTIVE CELLS=12760 NUMBER OF EQUATIONS=   12760
 
 SOLVING FOR HEAD 

 NO OUTPUT CONTROL FOR STRESS PERIOD    1   TIME STEP   24
 SOLVING FOR ZETA FOR LAYER     1 ZONE     2
 STRESS PERIOD=  1 TIMESTEP= 24 LAYER=  1 ZONE=  2 ACTIVE CELLS=12760 NUMBER OF EQUATIONS=   12760
 
 SOLVING FOR HEAD 

 NO OUTPUT CONTROL FOR STRESS PERIOD    1   TIME STEP   25
 SOLVING FOR ZETA FOR LAYER     1 ZONE     2
 STRESS PERIOD=  1 TIMESTEP= 25 LAYER=  1 ZONE=  2 ACTIVE CELLS=12760 NUMBER OF EQUATIONS=   12760
 
 SOLVING FOR HEAD 

 NO OUTPUT CONTROL FOR STRESS PERIOD    1   TIME STEP   26
 SOLVING FOR ZETA FOR LAYER     1 ZONE     2
 STRESS PERIOD=  1 TIMESTEP= 26 LAYER=  1 ZONE=  2 ACTIVE CELLS=12760 NUMBER OF EQUATIONS=   12760
 
 SOLVING FOR HEAD 

 NO OUTPUT CONTROL FOR STRESS PERIOD    1   TIME STEP   27
 SOLVING FOR ZETA FOR LAYER     1 ZONE     2
 STRESS PERIOD=  1 TIMESTEP= 27 LAYER=  1 ZONE=  2 ACTIVE CELLS=12760 NUMBER OF EQUATIONS=   12760
 
 SOLVING FOR HEAD 

 NO OUTPUT CONTROL FOR STRESS PERIOD    1   TIME STEP   28
 SOLVING FOR ZETA FOR LAYER     1 ZONE     2
 STRESS PERIOD=  1 TIMESTEP= 28 LAYER=  1 ZONE=  2 ACTIVE CELLS=12760 NUMBER OF EQUATIONS=   12760
 
 SOLVING FOR HEAD 

 NO OUTPUT CONTROL FOR STRESS PERIOD    1   TIME STEP   29
 SOLVING FOR ZETA FOR LAYER     1 ZONE     2
 STRESS PERIOD=  1 TIMESTEP= 29 LAYER=  1 ZONE=  2 ACTIVE CELLS=12760 NUMBER OF EQUATIONS=   12760
 
 SOLVING FOR HEAD 

 NO OUTPUT CONTROL FOR STRESS PERIOD    1   TIME STEP   30
 SOLVING FOR ZETA FOR LAYER     1 ZONE     2
 STRESS PERIOD=  1 TIMESTEP= 30 LAYER=  1 ZONE=  2 ACTIVE CELLS=12760 NUMBER OF EQUATIONS=   12760
 
 SOLVING FOR HEAD 

 NO OUTPUT CONTROL FOR STRESS PERIOD    1   TIME STEP   31
 SOLVING FOR ZETA FOR LAYER     1 ZONE     2
 STRESS PERIOD=  1 TIMESTEP= 31 LAYER=  1 ZONE=  2 ACTIVE CELLS=12760 NUMBER OF EQUATIONS=   12760
 
 SOLVING FOR HEAD 

 NO OUTPUT CONTROL FOR STRESS PERIOD    1   TIME STEP   32
 SOLVING FOR ZETA FOR LAYER     1 ZONE     2
 STRESS PERIOD=  1 TIMESTEP= 32 LAYER=  1 ZONE=  2 ACTIVE CELLS=12760 NUMBER OF EQUATIONS=   12760
 
 SOLVING FOR HEAD 

 NO OUTPUT CONTROL FOR STRESS PERIOD    1   TIME STEP   33
 SOLVING FOR ZETA FOR LAYER     1 ZONE     2

    6382 UPPER PART EQS.      6377 LOWER PART EQS.    BAND WIDTH + 1 =  100
 STRESS PERIOD=  1 TIMESTEP= 33 LAYER=  1 ZONE=  2 ACTIVE CELLS=12759 NUMBER OF EQUATIONS=   12759
 
 SOLVING FOR HEAD 

 NO OUTPUT CONTROL FOR STRESS PERIOD    1   TIME STEP   34
 SOLVING FOR ZETA FOR LAYER     1 ZONE     2

    6381 UPPER PART EQS.      6374 LOWER PART EQS.    BAND WIDTH + 1 =   99
 STRESS PERIOD=  1 TIMESTEP= 34 LAYER=  1 ZONE=  2 ACTIVE CELLS=12755 NUMBER OF EQUATIONS=   12755
 
 SOLVING FOR HEAD 

 NO OUTPUT CONTROL FOR STRESS PERIOD    1   TIME STEP   35
 SOLVING FOR ZETA FOR LAYER     1 ZONE     2

    6381 UPPER PART EQS.      6376 LOWER PART EQS.    BAND WIDTH + 1 =  100
 STRESS PERIOD=  1 TIMESTEP= 35 LAYER=  1 ZONE=  2 ACTIVE CELLS=12757 NUMBER OF EQUATIONS=   12757
 
 SOLVING FOR HEAD 

 NO OUTPUT CONTROL FOR STRESS PERIOD    1   TIME STEP   36
 SOLVING FOR ZETA FOR LAYER     1 ZONE     2

    6377 UPPER PART EQS.      6372 LOWER PART EQS.    BAND WIDTH + 1 =  100
 STRESS PERIOD=  1 TIMESTEP= 36 LAYER=  1 ZONE=  2 ACTIVE CELLS=12749 NUMBER OF EQUATIONS=   12749
 
 SOLVING FOR HEAD 

 NO OUTPUT CONTROL FOR STRESS PERIOD    1   TIME STEP   37
 SOLVING FOR ZETA FOR LAYER     1 ZONE     2

    6378 UPPER PART EQS.      6371 LOWER PART EQS.    BAND WIDTH + 1 =   99
 STRESS PERIOD=  1 TIMESTEP= 37 LAYER=  1 ZONE=  2 ACTIVE CELLS=12749 NUMBER OF EQUATIONS=   12749
 
 SOLVING FOR HEAD 

 NO OUTPUT CONTROL FOR STRESS PERIOD    1   TIME STEP   38
 SOLVING FOR ZETA FOR LAYER     1 ZONE     2

    6368 UPPER PART EQS.      6361 LOWER PART EQS.    BAND WIDTH + 1 =  100
 STRESS PERIOD=  1 TIMESTEP= 38 LAYER=  1 ZONE=  2 ACTIVE CELLS=12729 NUMBER OF EQUATIONS=   12729
 
 SOLVING FOR HEAD 

 NO OUTPUT CONTROL FOR STRESS PERIOD    1   TIME STEP   39
 SOLVING FOR ZETA FOR LAYER     1 ZONE     2

    6358 UPPER PART EQS.      6353 LOWER PART EQS.    BAND WIDTH + 1 =  100
 STRESS PERIOD=  1 TIMESTEP= 39 LAYER=  1 ZONE=  2 ACTIVE CELLS=12711 NUMBER OF EQUATIONS=   12711
 
 SOLVING FOR HEAD 

 NO OUTPUT CONTROL FOR STRESS PERIOD    1   TIME STEP   40
 SOLVING FOR ZETA FOR LAYER     1 ZONE     2

    6339 UPPER PART EQS.      6338 LOWER PART EQS.    BAND WIDTH + 1 =  101
 STRESS PERIOD=  1 TIMESTEP= 40 LAYER=  1 ZONE=  2 ACTIVE CELLS=12677 NUMBER OF EQUATIONS=   12677
 
 SOLVING FOR HEAD 

 NO OUTPUT CONTROL FOR STRESS PERIOD    1   TIME STEP   41
 SOLVING FOR ZETA FOR LAYER     1 ZONE     2

    6325 UPPER PART EQS.      6316 LOWER PART EQS.    BAND WIDTH + 1 =  100
 STRESS PERIOD=  1 TIMESTEP= 41 LAYER=  1 ZONE=  2 ACTIVE CELLS=12641 NUMBER OF EQUATIONS=   12641
 
 SOLVING FOR HEAD 

 NO OUTPUT CONTROL FOR STRESS PERIOD    1   TIME STEP   42
 SOLVING FOR ZETA FOR LAYER     1 ZONE     2

    6314 UPPER PART EQS.      6308 LOWER PART EQS.    BAND WIDTH + 1 =   99
 STRESS PERIOD=  1 TIMESTEP= 42 LAYER=  1 ZONE=  2 ACTIVE CELLS=12622 NUMBER OF EQUATIONS=   12622
 
 SOLVING FOR HEAD 

 NO OUTPUT CONTROL FOR STRESS PERIOD    1   TIME STEP   43
 SOLVING FOR ZETA FOR LAYER     1 ZONE     2

    6293 UPPER PART EQS.      6288 LOWER PART EQS.    BAND WIDTH + 1 =  103
 STRESS PERIOD=  1 TIMESTEP= 43 LAYER=  1 ZONE=  2 ACTIVE CELLS=12581 NUMBER OF EQUATIONS=   12581
 
 SOLVING FOR HEAD 

 NO OUTPUT CONTROL FOR STRESS PERIOD    1   TIME STEP   44
 SOLVING FOR ZETA FOR LAYER     1 ZONE     2

    6273 UPPER PART EQS.      6271 LOWER PART EQS.    BAND WIDTH + 1 =  100
 STRESS PERIOD=  1 TIMESTEP= 44 LAYER=  1 ZONE=  2 ACTIVE CELLS=12544 NUMBER OF EQUATIONS=   12544
 
 SOLVING FOR HEAD 

 NO OUTPUT CONTROL FOR STRESS PERIOD    1   TIME STEP   45
 SOLVING FOR ZETA FOR LAYER     1 ZONE     2

    6260 UPPER PART EQS.      6251 LOWER PART EQS.    BAND WIDTH + 1 =  102
 STRESS PERIOD=  1 TIMESTEP= 45 LAYER=  1 ZONE=  2 ACTIVE CELLS=12511 NUMBER OF EQUATIONS=   12511
 
 SOLVING FOR HEAD 

 NO OUTPUT CONTROL FOR STRESS PERIOD    1   TIME STEP   46
 SOLVING FOR ZETA FOR LAYER     1 ZONE     2

    6241 UPPER PART EQS.      6249 LOWER PART EQS.    BAND WIDTH + 1 =  103
 STRESS PERIOD=  1 TIMESTEP= 46 LAYER=  1 ZONE=  2 ACTIVE CELLS=12490 NUMBER OF EQUATIONS=   12490
 
 SOLVING FOR HEAD 

 NO OUTPUT CONTROL FOR STRESS PERIOD    1   TIME STEP   47
 SOLVING FOR ZETA FOR LAYER     1 ZONE     2

    6235 UPPER PART EQS.      6230 LOWER PART EQS.    BAND WIDTH + 1 =  101
 STRESS PERIOD=  1 TIMESTEP= 47 LAYER=  1 ZONE=  2 ACTIVE CELLS=12465 NUMBER OF EQUATIONS=   12465
 
 SOLVING FOR HEAD 

 NO OUTPUT CONTROL FOR STRESS PERIOD    1   TIME STEP   48
 SOLVING FOR ZETA FOR LAYER     1 ZONE     2

    6214 UPPER PART EQS.      6224 LOWER PART EQS.    BAND WIDTH + 1 =  103
 STRESS PERIOD=  1 TIMESTEP= 48 LAYER=  1 ZONE=  2 ACTIVE CELLS=12438 NUMBER OF EQUATIONS=   12438
 
 SOLVING FOR HEAD 

 NO OUTPUT CONTROL FOR STRESS PERIOD    1   TIME STEP   49
 SOLVING FOR ZETA FOR LAYER     1 ZONE     2

    6218 UPPER PART EQS.      6211 LOWER PART EQS.    BAND WIDTH + 1 =  102
 STRESS PERIOD=  1 TIMESTEP= 49 LAYER=  1 ZONE=  2 ACTIVE CELLS=12429 NUMBER OF EQUATIONS=   12429
 
 SOLVING FOR HEAD 

 NO OUTPUT CONTROL FOR STRESS PERIOD    1   TIME STEP   50
 SOLVING FOR ZETA FOR LAYER     1 ZONE     2

    6191 UPPER PART EQS.      6198 LOWER PART EQS.    BAND WIDTH + 1 =  103
 STRESS PERIOD=  1 TIMESTEP= 50 LAYER=  1 ZONE=  2 ACTIVE CELLS=12389 NUMBER OF EQUATIONS=   12389
 
 SOLVING FOR HEAD 

 NO OUTPUT CONTROL FOR STRESS PERIOD    1   TIME STEP   51
 SOLVING FOR ZETA FOR LAYER     1 ZONE     2

    6187 UPPER PART EQS.      6184 LOWER PART EQS.    BAND WIDTH + 1 =  100
 STRESS PERIOD=  1 TIMESTEP= 51 LAYER=  1 ZONE=  2 ACTIVE CELLS=12371 NUMBER OF EQUATIONS=   12371
 
 SOLVING FOR HEAD 

 NO OUTPUT CONTROL FOR STRESS PERIOD    1   TIME STEP   52
 SOLVING FOR ZETA FOR LAYER     1 ZONE     2

    6172 UPPER PART EQS.      6173 LOWER PART EQS.    BAND WIDTH + 1 =   98
 STRESS PERIOD=  1 TIMESTEP= 52 LAYER=  1 ZONE=  2 ACTIVE CELLS=12345 NUMBER OF EQUATIONS=   12345
 
 SOLVING FOR HEAD 

 NO OUTPUT CONTROL FOR STRESS PERIOD    1   TIME STEP   53
 SOLVING FOR ZETA FOR LAYER     1 ZONE     2

    6164 UPPER PART EQS.      6157 LOWER PART EQS.    BAND WIDTH + 1 =  100
 STRESS PERIOD=  1 TIMESTEP= 53 LAYER=  1 ZONE=  2 ACTIVE CELLS=12321 NUMBER OF EQUATIONS=   12321
 
 SOLVING FOR HEAD 

 NO OUTPUT CONTROL FOR STRESS PERIOD    1   TIME STEP   54
 SOLVING FOR ZETA FOR LAYER     1 ZONE     2

    6151 UPPER PART EQS.      6151 LOWER PART EQS.    BAND WIDTH + 1 =   98
 STRESS PERIOD=  1 TIMESTEP= 54 LAYER=  1 ZONE=  2 ACTIVE CELLS=12302 NUMBER OF EQUATIONS=   12302
 
 SOLVING FOR HEAD 

 NO OUTPUT CONTROL FOR STRESS PERIOD    1   TIME STEP   55
 SOLVING FOR ZETA FOR LAYER     1 ZONE     2

    6143 UPPER PART EQS.      6135 LOWER PART EQS.    BAND WIDTH + 1 =  100
 STRESS PERIOD=  1 TIMESTEP= 55 LAYER=  1 ZONE=  2 ACTIVE CELLS=12278 NUMBER OF EQUATIONS=   12278
 
 SOLVING FOR HEAD 

 NO OUTPUT CONTROL FOR STRESS PERIOD    1   TIME STEP   56
 SOLVING FOR ZETA FOR LAYER     1 ZONE     2

    6119 UPPER PART EQS.      6123 LOWER PART EQS.    BAND WIDTH + 1 =   97
 STRESS PERIOD=  1 TIMESTEP= 56 LAYER=  1 ZONE=  2 ACTIVE CELLS=12242 NUMBER OF EQUATIONS=   12242
 
 SOLVING FOR HEAD 

 NO OUTPUT CONTROL FOR STRESS PERIOD    1   TIME STEP   57
 SOLVING FOR ZETA FOR LAYER     1 ZONE     2

    6112 UPPER PART EQS.      6103 LOWER PART EQS.    BAND WIDTH + 1 =  101
 STRESS PERIOD=  1 TIMESTEP= 57 LAYER=  1 ZONE=  2 ACTIVE CELLS=12215 NUMBER OF EQUATIONS=   12215
 
 SOLVING FOR HEAD 

 NO OUTPUT CONTROL FOR STRESS PERIOD    1   TIME STEP   58
 SOLVING FOR ZETA FOR LAYER     1 ZONE     2

    6091 UPPER PART EQS.      6100 LOWER PART EQS.    BAND WIDTH + 1 =   96
 STRESS PERIOD=  1 TIMESTEP= 58 LAYER=  1 ZONE=  2 ACTIVE CELLS=12191 NUMBER OF EQUATIONS=   12191
 
 SOLVING FOR HEAD 

 NO OUTPUT CONTROL FOR STRESS PERIOD    1   TIME STEP   59
 SOLVING FOR ZETA FOR LAYER     1 ZONE     2

    6085 UPPER PART EQS.      6078 LOWER PART EQS.    BAND WIDTH + 1 =  102
 STRESS PERIOD=  1 TIMESTEP= 59 LAYER=  1 ZONE=  2 ACTIVE CELLS=12163 NUMBER OF EQUATIONS=   12163
 
 SOLVING FOR HEAD 

 NO OUTPUT CONTROL FOR STRESS PERIOD    1   TIME STEP   60
 SOLVING FOR ZETA FOR LAYER     1 ZONE     2

    6069 UPPER PART EQS.      6069 LOWER PART EQS.    BAND WIDTH + 1 =   99
 STRESS PERIOD=  1 TIMESTEP= 60 LAYER=  1 ZONE=  2 ACTIVE CELLS=12138 NUMBER OF EQUATIONS=   12138
 
 SOLVING FOR HEAD 

 NO OUTPUT CONTROL FOR STRESS PERIOD    1   TIME STEP   61
 SOLVING FOR ZETA FOR LAYER     1 ZONE     2

    6059 UPPER PART EQS.      6053 LOWER PART EQS.    BAND WIDTH + 1 =  102
 STRESS PERIOD=  1 TIMESTEP= 61 LAYER=  1 ZONE=  2 ACTIVE CELLS=12112 NUMBER OF EQUATIONS=   12112
 
 SOLVING FOR HEAD 

 NO OUTPUT CONTROL FOR STRESS PERIOD    1   TIME STEP   62
 SOLVING FOR ZETA FOR LAYER     1 ZONE     2

    6043 UPPER PART EQS.      6046 LOWER PART EQS.    BAND WIDTH + 1 =  100
 STRESS PERIOD=  1 TIMESTEP= 62 LAYER=  1 ZONE=  2 ACTIVE CELLS=12089 NUMBER OF EQUATIONS=   12089
 
 SOLVING FOR HEAD 

 NO OUTPUT CONTROL FOR STRESS PERIOD    1   TIME STEP   63
 SOLVING FOR ZETA FOR LAYER     1 ZONE     2

    6026 UPPER PART EQS.      6024 LOWER PART EQS.    BAND WIDTH + 1 =  107
 INSUFFICIENT MEMORY FOR DE4 SOLVER:
 MXBW MUST BE AT LEAST  107
 
 SOLVING FOR HEAD 

 NO OUTPUT CONTROL FOR STRESS PERIOD    1   TIME STEP   64
 SOLVING FOR ZETA FOR LAYER     1 ZONE     2

    6122 UPPER PART EQS.      6129 LOWER PART EQS.    BAND WIDTH + 1 =   96
 STRESS PERIOD=  1 TIMESTEP= 64 LAYER=  1 ZONE=  2 ACTIVE CELLS=12251 NUMBER OF EQUATIONS=   12251
 
 SOLVING FOR HEAD 

 NO OUTPUT CONTROL FOR STRESS PERIOD    1   TIME STEP   65
 SOLVING FOR ZETA FOR LAYER     1 ZONE     2

    5930 UPPER PART EQS.      5922 LOWER PART EQS.    BAND WIDTH + 1 =  102
 STRESS PERIOD=  1 TIMESTEP= 65 LAYER=  1 ZONE=  2 ACTIVE CELLS=11852 NUMBER OF EQUATIONS=   11852
 
 SOLVING FOR HEAD 

 NO OUTPUT CONTROL FOR STRESS PERIOD    1   TIME STEP   66
 SOLVING FOR ZETA FOR LAYER     1 ZONE     2

    6091 UPPER PART EQS.      6095 LOWER PART EQS.    BAND WIDTH + 1 =   97
 STRESS PERIOD=  1 TIMESTEP= 66 LAYER=  1 ZONE=  2 ACTIVE CELLS=12186 NUMBER OF EQUATIONS=   12186
 
 SOLVING FOR HEAD 

 NO OUTPUT CONTROL FOR STRESS PERIOD    1   TIME STEP   67
 SOLVING FOR ZETA FOR LAYER     1 ZONE     2

    5913 UPPER PART EQS.      5911 LOWER PART EQS.    BAND WIDTH + 1 =   94
 STRESS PERIOD=  1 TIMESTEP= 67 LAYER=  1 ZONE=  2 ACTIVE CELLS=11824 NUMBER OF EQUATIONS=   11824
 
 SOLVING FOR HEAD 

 NO OUTPUT CONTROL FOR STRESS PERIOD    1   TIME STEP   68
 SOLVING FOR ZETA FOR LAYER     1 ZONE     2

    6062 UPPER PART EQS.      6063 LOWER PART EQS.    BAND WIDTH + 1 =   99
 STRESS PERIOD=  1 TIMESTEP= 68 LAYER=  1 ZONE=  2 ACTIVE CELLS=12125 NUMBER OF EQUATIONS=   12125
 
 SOLVING FOR HEAD 

 NO OUTPUT CONTROL FOR STRESS PERIOD    1   TIME STEP   69
 SOLVING FOR ZETA FOR LAYER     1 ZONE     2

    5901 UPPER PART EQS.      5901 LOWER PART EQS.    BAND WIDTH + 1 =   98
 STRESS PERIOD=  1 TIMESTEP= 69 LAYER=  1 ZONE=  2 ACTIVE CELLS=11802 NUMBER OF EQUATIONS=   11802
 
 SOLVING FOR HEAD 

 NO OUTPUT CONTROL FOR STRESS PERIOD    1   TIME STEP   70
 SOLVING FOR ZETA FOR LAYER     1 ZONE     2

    6042 UPPER PART EQS.      6038 LOWER PART EQS.    BAND WIDTH + 1 =   99
 STRESS PERIOD=  1 TIMESTEP= 70 LAYER=  1 ZONE=  2 ACTIVE CELLS=12080 NUMBER OF EQUATIONS=   12080
 
 SOLVING FOR HEAD 

 NO OUTPUT CONTROL FOR STRESS PERIOD    1   TIME STEP   71
 SOLVING FOR ZETA FOR LAYER     1 ZONE     2

    5892 UPPER PART EQS.      5887 LOWER PART EQS.    BAND WIDTH + 1 =   97
 STRESS PERIOD=  1 TIMESTEP= 71 LAYER=  1 ZONE=  2 ACTIVE CELLS=11779 NUMBER OF EQUATIONS=   11779
 
 SOLVING FOR HEAD 

 NO OUTPUT CONTROL FOR STRESS PERIOD    1   TIME STEP   72
 SOLVING FOR ZETA FOR LAYER     1 ZONE     2

    6004 UPPER PART EQS.      5999 LOWER PART EQS.    BAND WIDTH + 1 =   99
 STRESS PERIOD=  1 TIMESTEP= 72 LAYER=  1 ZONE=  2 ACTIVE CELLS=12003 NUMBER OF EQUATIONS=   12003
 
 SOLVING FOR HEAD 

 NO OUTPUT CONTROL FOR STRESS PERIOD    1   TIME STEP   73
 SOLVING FOR ZETA FOR LAYER     1 ZONE     2

    5872 UPPER PART EQS.      5871 LOWER PART EQS.    BAND WIDTH + 1 =   95
 STRESS PERIOD=  1 TIMESTEP= 73 LAYER=  1 ZONE=  2 ACTIVE CELLS=11743 NUMBER OF EQUATIONS=   11743
 
 SOLVING FOR HEAD 

 NO OUTPUT CONTROL FOR STRESS PERIOD    1   TIME STEP   74
 SOLVING FOR ZETA FOR LAYER     1 ZONE     2

    5982 UPPER PART EQS.      5972 LOWER PART EQS.    BAND WIDTH + 1 =   97
 STRESS PERIOD=  1 TIMESTEP= 74 LAYER=  1 ZONE=  2 ACTIVE CELLS=11954 NUMBER OF EQUATIONS=   11954
 
 SOLVING FOR HEAD 

 NO OUTPUT CONTROL FOR STRESS PERIOD    1   TIME STEP   75
 SOLVING FOR ZETA FOR LAYER     1 ZONE     2

    5852 UPPER PART EQS.      5852 LOWER PART EQS.    BAND WIDTH + 1 =   94
 STRESS PERIOD=  1 TIMESTEP= 75 LAYER=  1 ZONE=  2 ACTIVE CELLS=11704 NUMBER OF EQUATIONS=   11704
 
 SOLVING FOR HEAD 

 NO OUTPUT CONTROL FOR STRESS PERIOD    1   TIME STEP   76
 SOLVING FOR ZETA FOR LAYER     1 ZONE     2

    5965 UPPER PART EQS.      5955 LOWER PART EQS.    BAND WIDTH + 1 =   96
 STRESS PERIOD=  1 TIMESTEP= 76 LAYER=  1 ZONE=  2 ACTIVE CELLS=11920 NUMBER OF EQUATIONS=   11920
 
 SOLVING FOR HEAD 

 NO OUTPUT CONTROL FOR STRESS PERIOD    1   TIME STEP   77
 SOLVING FOR ZETA FOR LAYER     1 ZONE     2

    5837 UPPER PART EQS.      5836 LOWER PART EQS.    BAND WIDTH + 1 =   94
 STRESS PERIOD=  1 TIMESTEP= 77 LAYER=  1 ZONE=  2 ACTIVE CELLS=11673 NUMBER OF EQUATIONS=   11673
 
 SOLVING FOR HEAD 

 NO OUTPUT CONTROL FOR STRESS PERIOD    1   TIME STEP   78
 SOLVING FOR ZETA FOR LAYER     1 ZONE     2

    5948 UPPER PART EQS.      5943 LOWER PART EQS.    BAND WIDTH + 1 =   96
 STRESS PERIOD=  1 TIMESTEP= 78 LAYER=  1 ZONE=  2 ACTIVE CELLS=11891 NUMBER OF EQUATIONS=   11891
 
 SOLVING FOR HEAD 

 NO OUTPUT CONTROL FOR STRESS PERIOD    1   TIME STEP   79
 SOLVING FOR ZETA FOR LAYER     1 ZONE     2

    5820 UPPER PART EQS.      5820 LOWER PART EQS.    BAND WIDTH + 1 =   94
 STRESS PERIOD=  1 TIMESTEP= 79 LAYER=  1 ZONE=  2 ACTIVE CELLS=11640 NUMBER OF EQUATIONS=   11640
 
 SOLVING FOR HEAD 

 NO OUTPUT CONTROL FOR STRESS PERIOD    1   TIME STEP   80
 SOLVING FOR ZETA FOR LAYER     1 ZONE     2

    5931 UPPER PART EQS.      5927 LOWER PART EQS.    BAND WIDTH + 1 =   96
 STRESS PERIOD=  1 TIMESTEP= 80 LAYER=  1 ZONE=  2 ACTIVE CELLS=11858 NUMBER OF EQUATIONS=   11858
 
 SOLVING FOR HEAD 

 NO OUTPUT CONTROL FOR STRESS PERIOD    1   TIME STEP   81
 SOLVING FOR ZETA FOR LAYER     1 ZONE     2

    5804 UPPER PART EQS.      5807 LOWER PART EQS.    BAND WIDTH + 1 =   94
 STRESS PERIOD=  1 TIMESTEP= 81 LAYER=  1 ZONE=  2 ACTIVE CELLS=11611 NUMBER OF EQUATIONS=   11611
 
 SOLVING FOR HEAD 

 NO OUTPUT CONTROL FOR STRESS PERIOD    1   TIME STEP   82
 SOLVING FOR ZETA FOR LAYER     1 ZONE     2

    5908 UPPER PART EQS.      5909 LOWER PART EQS.    BAND WIDTH + 1 =   95
 STRESS PERIOD=  1 TIMESTEP= 82 LAYER=  1 ZONE=  2 ACTIVE CELLS=11817 NUMBER OF EQUATIONS=   11817
 
 SOLVING FOR HEAD 

 NO OUTPUT CONTROL FOR STRESS PERIOD    1   TIME STEP   83
 SOLVING FOR ZETA FOR LAYER     1 ZONE     2

    5783 UPPER PART EQS.      5778 LOWER PART EQS.    BAND WIDTH + 1 =   95
 STRESS PERIOD=  1 TIMESTEP= 83 LAYER=  1 ZONE=  2 ACTIVE CELLS=11561 NUMBER OF EQUATIONS=   11561
 
 SOLVING FOR HEAD 

 NO OUTPUT CONTROL FOR STRESS PERIOD    1   TIME STEP   84
 SOLVING FOR ZETA FOR LAYER     1 ZONE     2

    5892 UPPER PART EQS.      5891 LOWER PART EQS.    BAND WIDTH + 1 =   96
 STRESS PERIOD=  1 TIMESTEP= 84 LAYER=  1 ZONE=  2 ACTIVE CELLS=11783 NUMBER OF EQUATIONS=   11783
 
 SOLVING FOR HEAD 

 NO OUTPUT CONTROL FOR STRESS PERIOD    1   TIME STEP   85
 SOLVING FOR ZETA FOR LAYER     1 ZONE     2

    5768 UPPER PART EQS.      5766 LOWER PART EQS.    BAND WIDTH + 1 =   94
 STRESS PERIOD=  1 TIMESTEP= 85 LAYER=  1 ZONE=  2 ACTIVE CELLS=11534 NUMBER OF EQUATIONS=   11534
 
 SOLVING FOR HEAD 

 NO OUTPUT CONTROL FOR STRESS PERIOD    1   TIME STEP   86
 SOLVING FOR ZETA FOR LAYER     1 ZONE     2

    5876 UPPER PART EQS.      5876 LOWER PART EQS.    BAND WIDTH + 1 =   96
 STRESS PERIOD=  1 TIMESTEP= 86 LAYER=  1 ZONE=  2 ACTIVE CELLS=11752 NUMBER OF EQUATIONS=   11752
 
 SOLVING FOR HEAD 

 NO OUTPUT CONTROL FOR STRESS PERIOD    1   TIME STEP   87
 SOLVING FOR ZETA FOR LAYER     1 ZONE     2

    5752 UPPER PART EQS.      5752 LOWER PART EQS.    BAND WIDTH + 1 =   95
 STRESS PERIOD=  1 TIMESTEP= 87 LAYER=  1 ZONE=  2 ACTIVE CELLS=11504 NUMBER OF EQUATIONS=   11504
 
 SOLVING FOR HEAD 

 NO OUTPUT CONTROL FOR STRESS PERIOD    1   TIME STEP   88
 SOLVING FOR ZETA FOR LAYER     1 ZONE     2

    5858 UPPER PART EQS.      5856 LOWER PART EQS.    BAND WIDTH + 1 =   95
 STRESS PERIOD=  1 TIMESTEP= 88 LAYER=  1 ZONE=  2 ACTIVE CELLS=11714 NUMBER OF EQUATIONS=   11714
 
 SOLVING FOR HEAD 

 NO OUTPUT CONTROL FOR STRESS PERIOD    1   TIME STEP   89
 SOLVING FOR ZETA FOR LAYER     1 ZONE     2

    5740 UPPER PART EQS.      5735 LOWER PART EQS.    BAND WIDTH + 1 =   95
 STRESS PERIOD=  1 TIMESTEP= 89 LAYER=  1 ZONE=  2 ACTIVE CELLS=11475 NUMBER OF EQUATIONS=   11475
 
 SOLVING FOR HEAD 

 NO OUTPUT CONTROL FOR STRESS PERIOD    1   TIME STEP   90
 SOLVING FOR ZETA FOR LAYER     1 ZONE     2

    5838 UPPER PART EQS.      5844 LOWER PART EQS.    BAND WIDTH + 1 =   95
 STRESS PERIOD=  1 TIMESTEP= 90 LAYER=  1 ZONE=  2 ACTIVE CELLS=11682 NUMBER OF EQUATIONS=   11682
 
 SOLVING FOR HEAD 

 NO OUTPUT CONTROL FOR STRESS PERIOD    1   TIME STEP   91
 SOLVING FOR ZETA FOR LAYER     1 ZONE     2

    5727 UPPER PART EQS.      5721 LOWER PART EQS.    BAND WIDTH + 1 =   95
 STRESS PERIOD=  1 TIMESTEP= 91 LAYER=  1 ZONE=  2 ACTIVE CELLS=11448 NUMBER OF EQUATIONS=   11448
 
 SOLVING FOR HEAD 

 NO OUTPUT CONTROL FOR STRESS PERIOD    1   TIME STEP   92
 SOLVING FOR ZETA FOR LAYER     1 ZONE     2

    5828 UPPER PART EQS.      5831 LOWER PART EQS.    BAND WIDTH + 1 =   95
 STRESS PERIOD=  1 TIMESTEP= 92 LAYER=  1 ZONE=  2 ACTIVE CELLS=11659 NUMBER OF EQUATIONS=   11659
 
 SOLVING FOR HEAD 

 NO OUTPUT CONTROL FOR STRESS PERIOD    1   TIME STEP   93
 SOLVING FOR ZETA FOR LAYER     1 ZONE     2

    5716 UPPER PART EQS.      5710 LOWER PART EQS.    BAND WIDTH + 1 =   93
 STRESS PERIOD=  1 TIMESTEP= 93 LAYER=  1 ZONE=  2 ACTIVE CELLS=11426 NUMBER OF EQUATIONS=   11426
 
 SOLVING FOR HEAD 

 NO OUTPUT CONTROL FOR STRESS PERIOD    1   TIME STEP   94
 SOLVING FOR ZETA FOR LAYER     1 ZONE     2

    5812 UPPER PART EQS.      5814 LOWER PART EQS.    BAND WIDTH + 1 =   96
 STRESS PERIOD=  1 TIMESTEP= 94 LAYER=  1 ZONE=  2 ACTIVE CELLS=11626 NUMBER OF EQUATIONS=   11626
 
 SOLVING FOR HEAD 

 NO OUTPUT CONTROL FOR STRESS PERIOD    1   TIME STEP   95
 SOLVING FOR ZETA FOR LAYER     1 ZONE     2

    5707 UPPER PART EQS.      5704 LOWER PART EQS.    BAND WIDTH + 1 =   94
 STRESS PERIOD=  1 TIMESTEP= 95 LAYER=  1 ZONE=  2 ACTIVE CELLS=11411 NUMBER OF EQUATIONS=   11411
 
 SOLVING FOR HEAD 

 NO OUTPUT CONTROL FOR STRESS PERIOD    1   TIME STEP   96
 SOLVING FOR ZETA FOR LAYER     1 ZONE     2

    5799 UPPER PART EQS.      5799 LOWER PART EQS.    BAND WIDTH + 1 =   95
 STRESS PERIOD=  1 TIMESTEP= 96 LAYER=  1 ZONE=  2 ACTIVE CELLS=11598 NUMBER OF EQUATIONS=   11598
 
 SOLVING FOR HEAD 

 NO OUTPUT CONTROL FOR STRESS PERIOD    1   TIME STEP   97
 SOLVING FOR ZETA FOR LAYER     1 ZONE     2

    5694 UPPER PART EQS.      5687 LOWER PART EQS.    BAND WIDTH + 1 =   96
 STRESS PERIOD=  1 TIMESTEP= 97 LAYER=  1 ZONE=  2 ACTIVE CELLS=11381 NUMBER OF EQUATIONS=   11381
 
 SOLVING FOR HEAD 

 NO OUTPUT CONTROL FOR STRESS PERIOD    1   TIME STEP   98
 SOLVING FOR ZETA FOR LAYER     1 ZONE     2

    5781 UPPER PART EQS.      5779 LOWER PART EQS.    BAND WIDTH + 1 =   95
 STRESS PERIOD=  1 TIMESTEP= 98 LAYER=  1 ZONE=  2 ACTIVE CELLS=11560 NUMBER OF EQUATIONS=   11560
 
 SOLVING FOR HEAD 

 NO OUTPUT CONTROL FOR STRESS PERIOD    1   TIME STEP   99
 SOLVING FOR ZETA FOR LAYER     1 ZONE     2

    5670 UPPER PART EQS.      5668 LOWER PART EQS.    BAND WIDTH + 1 =   95
 STRESS PERIOD=  1 TIMESTEP= 99 LAYER=  1 ZONE=  2 ACTIVE CELLS=11338 NUMBER OF EQUATIONS=   11338
 
 SOLVING FOR HEAD 

 NO OUTPUT CONTROL FOR STRESS PERIOD    1   TIME STEP  100
 SOLVING FOR ZETA FOR LAYER     1 ZONE     2

    5768 UPPER PART EQS.      5765 LOWER PART EQS.    BAND WIDTH + 1 =   95
 STRESS PERIOD=  1 TIMESTEP=100 LAYER=  1 ZONE=  2 ACTIVE CELLS=11533 NUMBER OF EQUATIONS=   11533
 
 SOLVING FOR HEAD 

 NO OUTPUT CONTROL FOR STRESS PERIOD    1   TIME STEP  101
 SOLVING FOR ZETA FOR LAYER     1 ZONE     2

    5657 UPPER PART EQS.      5656 LOWER PART EQS.    BAND WIDTH + 1 =   96
 STRESS PERIOD=  1 TIMESTEP=101 LAYER=  1 ZONE=  2 ACTIVE CELLS=11313 NUMBER OF EQUATIONS=   11313
 
 SOLVING FOR HEAD 

 NO OUTPUT CONTROL FOR STRESS PERIOD    1   TIME STEP  102
 SOLVING FOR ZETA FOR LAYER     1 ZONE     2

    5757 UPPER PART EQS.      5752 LOWER PART EQS.    BAND WIDTH + 1 =   95
 STRESS PERIOD=  1 TIMESTEP=102 LAYER=  1 ZONE=  2 ACTIVE CELLS=11509 NUMBER OF EQUATIONS=   11509
 
 SOLVING FOR HEAD 

 NO OUTPUT CONTROL FOR STRESS PERIOD    1   TIME STEP  103
 SOLVING FOR ZETA FOR LAYER     1 ZONE     2

    5644 UPPER PART EQS.      5638 LOWER PART EQS.    BAND WIDTH + 1 =   96
 STRESS PERIOD=  1 TIMESTEP=103 LAYER=  1 ZONE=  2 ACTIVE CELLS=11282 NUMBER OF EQUATIONS=   11282
 
 SOLVING FOR HEAD 

 NO OUTPUT CONTROL FOR STRESS PERIOD    1   TIME STEP  104
 SOLVING FOR ZETA FOR LAYER     1 ZONE     2

    5743 UPPER PART EQS.      5743 LOWER PART EQS.    BAND WIDTH + 1 =   99
 STRESS PERIOD=  1 TIMESTEP=104 LAYER=  1 ZONE=  2 ACTIVE CELLS=11486 NUMBER OF EQUATIONS=   11486
 
 SOLVING FOR HEAD 

 NO OUTPUT CONTROL FOR STRESS PERIOD    1   TIME STEP  105
 SOLVING FOR ZETA FOR LAYER     1 ZONE     2

    5630 UPPER PART EQS.      5627 LOWER PART EQS.    BAND WIDTH + 1 =   95
 STRESS PERIOD=  1 TIMESTEP=105 LAYER=  1 ZONE=  2 ACTIVE CELLS=11257 NUMBER OF EQUATIONS=   11257
 
 SOLVING FOR HEAD 

 NO OUTPUT CONTROL FOR STRESS PERIOD    1   TIME STEP  106
 SOLVING FOR ZETA FOR LAYER     1 ZONE     2

    5735 UPPER PART EQS.      5731 LOWER PART EQS.    BAND WIDTH + 1 =   97
 STRESS PERIOD=  1 TIMESTEP=106 LAYER=  1 ZONE=  2 ACTIVE CELLS=11466 NUMBER OF EQUATIONS=   11466
 
 SOLVING FOR HEAD 

 NO OUTPUT CONTROL FOR STRESS PERIOD    1   TIME STEP  107
 SOLVING FOR ZETA FOR LAYER     1 ZONE     2

    5616 UPPER PART EQS.      5622 LOWER PART EQS.    BAND WIDTH + 1 =   95
 STRESS PERIOD=  1 TIMESTEP=107 LAYER=  1 ZONE=  2 ACTIVE CELLS=11238 NUMBER OF EQUATIONS=   11238
 
 SOLVING FOR HEAD 

 NO OUTPUT CONTROL FOR STRESS PERIOD    1   TIME STEP  108
 SOLVING FOR ZETA FOR LAYER     1 ZONE     2

    5722 UPPER PART EQS.      5720 LOWER PART EQS.    BAND WIDTH + 1 =  100
 STRESS PERIOD=  1 TIMESTEP=108 LAYER=  1 ZONE=  2 ACTIVE CELLS=11442 NUMBER OF EQUATIONS=   11442
 
 SOLVING FOR HEAD 

 NO OUTPUT CONTROL FOR STRESS PERIOD    1   TIME STEP  109
 SOLVING FOR ZETA FOR LAYER     1 ZONE     2

    5608 UPPER PART EQS.      5607 LOWER PART EQS.    BAND WIDTH + 1 =   95
 STRESS PERIOD=  1 TIMESTEP=109 LAYER=  1 ZONE=  2 ACTIVE CELLS=11215 NUMBER OF EQUATIONS=   11215
 
 SOLVING FOR HEAD 

 NO OUTPUT CONTROL FOR STRESS PERIOD    1   TIME STEP  110
 SOLVING FOR ZETA FOR LAYER     1 ZONE     2

    5699 UPPER PART EQS.      5702 LOWER PART EQS.    BAND WIDTH + 1 =  101
 STRESS PERIOD=  1 TIMESTEP=110 LAYER=  1 ZONE=  2 ACTIVE CELLS=11401 NUMBER OF EQUATIONS=   11401
 
 SOLVING FOR HEAD 

 NO OUTPUT CONTROL FOR STRESS PERIOD    1   TIME STEP  111
 SOLVING FOR ZETA FOR LAYER     1 ZONE     2

    5598 UPPER PART EQS.      5594 LOWER PART EQS.    BAND WIDTH + 1 =   99
 STRESS PERIOD=  1 TIMESTEP=111 LAYER=  1 ZONE=  2 ACTIVE CELLS=11192 NUMBER OF EQUATIONS=   11192
 
 SOLVING FOR HEAD 

 NO OUTPUT CONTROL FOR STRESS PERIOD    1   TIME STEP  112
 SOLVING FOR ZETA FOR LAYER     1 ZONE     2

    5693 UPPER PART EQS.      5689 LOWER PART EQS.    BAND WIDTH + 1 =  101
 STRESS PERIOD=  1 TIMESTEP=112 LAYER=  1 ZONE=  2 ACTIVE CELLS=11382 NUMBER OF EQUATIONS=   11382
 
 SOLVING FOR HEAD 

 NO OUTPUT CONTROL FOR STRESS PERIOD    1   TIME STEP  113
 SOLVING FOR ZETA FOR LAYER     1 ZONE     2

    5584 UPPER PART EQS.      5586 LOWER PART EQS.    BAND WIDTH + 1 =   98
 STRESS PERIOD=  1 TIMESTEP=113 LAYER=  1 ZONE=  2 ACTIVE CELLS=11170 NUMBER OF EQUATIONS=   11170
 
 SOLVING FOR HEAD 

 NO OUTPUT CONTROL FOR STRESS PERIOD    1   TIME STEP  114
 SOLVING FOR ZETA FOR LAYER     1 ZONE     2

    5681 UPPER PART EQS.      5675 LOWER PART EQS.    BAND WIDTH + 1 =  100
 STRESS PERIOD=  1 TIMESTEP=114 LAYER=  1 ZONE=  2 ACTIVE CELLS=11356 NUMBER OF EQUATIONS=   11356
 
 SOLVING FOR HEAD 

 NO OUTPUT CONTROL FOR STRESS PERIOD    1   TIME STEP  115
 SOLVING FOR ZETA FOR LAYER     1 ZONE     2

    5567 UPPER PART EQS.      5572 LOWER PART EQS.    BAND WIDTH + 1 =   96
 STRESS PERIOD=  1 TIMESTEP=115 LAYER=  1 ZONE=  2 ACTIVE CELLS=11139 NUMBER OF EQUATIONS=   11139
 
 SOLVING FOR HEAD 

 NO OUTPUT CONTROL FOR STRESS PERIOD    1   TIME STEP  116
 SOLVING FOR ZETA FOR LAYER     1 ZONE     2

    5671 UPPER PART EQS.      5664 LOWER PART EQS.    BAND WIDTH + 1 =   97
 STRESS PERIOD=  1 TIMESTEP=116 LAYER=  1 ZONE=  2 ACTIVE CELLS=11335 NUMBER OF EQUATIONS=   11335
 
 SOLVING FOR HEAD 

 NO OUTPUT CONTROL FOR STRESS PERIOD    1   TIME STEP  117
 SOLVING FOR ZETA FOR LAYER     1 ZONE     2

    5550 UPPER PART EQS.      5558 LOWER PART EQS.    BAND WIDTH + 1 =   92
 STRESS PERIOD=  1 TIMESTEP=117 LAYER=  1 ZONE=  2 ACTIVE CELLS=11108 NUMBER OF EQUATIONS=   11108
 
 SOLVING FOR HEAD 

 NO OUTPUT CONTROL FOR STRESS PERIOD    1   TIME STEP  118
 SOLVING FOR ZETA FOR LAYER     1 ZONE     2

    5672 UPPER PART EQS.      5653 LOWER PART EQS.    BAND WIDTH + 1 =   97
 STRESS PERIOD=  1 TIMESTEP=118 LAYER=  1 ZONE=  2 ACTIVE CELLS=11325 NUMBER OF EQUATIONS=   11325
 
 SOLVING FOR HEAD 

 NO OUTPUT CONTROL FOR STRESS PERIOD    1   TIME STEP  119
 SOLVING FOR ZETA FOR LAYER     1 ZONE     2

    5543 UPPER PART EQS.      5549 LOWER PART EQS.    BAND WIDTH + 1 =   92
 STRESS PERIOD=  1 TIMESTEP=119 LAYER=  1 ZONE=  2 ACTIVE CELLS=11092 NUMBER OF EQUATIONS=   11092
 
 SOLVING FOR HEAD 

 NO OUTPUT CONTROL FOR STRESS PERIOD    1   TIME STEP  120
 SOLVING FOR ZETA FOR LAYER     1 ZONE     2

    5659 UPPER PART EQS.      5640 LOWER PART EQS.    BAND WIDTH + 1 =   97
 STRESS PERIOD=  1 TIMESTEP=120 LAYER=  1 ZONE=  2 ACTIVE CELLS=11299 NUMBER OF EQUATIONS=   11299
 
 SOLVING FOR HEAD 

 NO OUTPUT CONTROL FOR STRESS PERIOD    1   TIME STEP  121
 SOLVING FOR ZETA FOR LAYER     1 ZONE     2

    5524 UPPER PART EQS.      5540 LOWER PART EQS.    BAND WIDTH + 1 =   92
 STRESS PERIOD=  1 TIMESTEP=121 LAYER=  1 ZONE=  2 ACTIVE CELLS=11064 NUMBER OF EQUATIONS=   11064
 
 SOLVING FOR HEAD 

 NO OUTPUT CONTROL FOR STRESS PERIOD    1   TIME STEP  122
 SOLVING FOR ZETA FOR LAYER     1 ZONE     2

    5652 UPPER PART EQS.      5629 LOWER PART EQS.    BAND WIDTH + 1 =   97
 STRESS PERIOD=  1 TIMESTEP=122 LAYER=  1 ZONE=  2 ACTIVE CELLS=11281 NUMBER OF EQUATIONS=   11281
 
 SOLVING FOR HEAD 

 NO OUTPUT CONTROL FOR STRESS PERIOD    1   TIME STEP  123
 SOLVING FOR ZETA FOR LAYER     1 ZONE     2

    5521 UPPER PART EQS.      5528 LOWER PART EQS.    BAND WIDTH + 1 =   92
 STRESS PERIOD=  1 TIMESTEP=123 LAYER=  1 ZONE=  2 ACTIVE CELLS=11049 NUMBER OF EQUATIONS=   11049
 
 SOLVING FOR HEAD 

 NO OUTPUT CONTROL FOR STRESS PERIOD    1   TIME STEP  124
 SOLVING FOR ZETA FOR LAYER     1 ZONE     2

    5637 UPPER PART EQS.      5621 LOWER PART EQS.    BAND WIDTH + 1 =   97
 STRESS PERIOD=  1 TIMESTEP=124 LAYER=  1 ZONE=  2 ACTIVE CELLS=11258 NUMBER OF EQUATIONS=   11258
 
 SOLVING FOR HEAD 

 NO OUTPUT CONTROL FOR STRESS PERIOD    1   TIME STEP  125
 SOLVING FOR ZETA FOR LAYER     1 ZONE     2

    5511 UPPER PART EQS.      5515 LOWER PART EQS.    BAND WIDTH + 1 =   93
 STRESS PERIOD=  1 TIMESTEP=125 LAYER=  1 ZONE=  2 ACTIVE CELLS=11026 NUMBER OF EQUATIONS=   11026
 
 SOLVING FOR HEAD 

 NO OUTPUT CONTROL FOR STRESS PERIOD    1   TIME STEP  126
 SOLVING FOR ZETA FOR LAYER     1 ZONE     2

    5630 UPPER PART EQS.      5610 LOWER PART EQS.    BAND WIDTH + 1 =   97
 STRESS PERIOD=  1 TIMESTEP=126 LAYER=  1 ZONE=  2 ACTIVE CELLS=11240 NUMBER OF EQUATIONS=   11240
 
 SOLVING FOR HEAD 

 NO OUTPUT CONTROL FOR STRESS PERIOD    1   TIME STEP  127
 SOLVING FOR ZETA FOR LAYER     1 ZONE     2

    5494 UPPER PART EQS.      5504 LOWER PART EQS.    BAND WIDTH + 1 =   92
 STRESS PERIOD=  1 TIMESTEP=127 LAYER=  1 ZONE=  2 ACTIVE CELLS=10998 NUMBER OF EQUATIONS=   10998
 
 SOLVING FOR HEAD 

 NO OUTPUT CONTROL FOR STRESS PERIOD    1   TIME STEP  128
 SOLVING FOR ZETA FOR LAYER     1 ZONE     2

    5615 UPPER PART EQS.      5598 LOWER PART EQS.    BAND WIDTH + 1 =   96
 STRESS PERIOD=  1 TIMESTEP=128 LAYER=  1 ZONE=  2 ACTIVE CELLS=11213 NUMBER OF EQUATIONS=   11213
 
 SOLVING FOR HEAD 

 NO OUTPUT CONTROL FOR STRESS PERIOD    1   TIME STEP  129
 SOLVING FOR ZETA FOR LAYER     1 ZONE     2

    5484 UPPER PART EQS.      5491 LOWER PART EQS.    BAND WIDTH + 1 =   92
 STRESS PERIOD=  1 TIMESTEP=129 LAYER=  1 ZONE=  2 ACTIVE CELLS=10975 NUMBER OF EQUATIONS=   10975
 
 SOLVING FOR HEAD 

 NO OUTPUT CONTROL FOR STRESS PERIOD    1   TIME STEP  130
 SOLVING FOR ZETA FOR LAYER     1 ZONE     2

    5589 UPPER PART EQS.      5583 LOWER PART EQS.    BAND WIDTH + 1 =   97
 STRESS PERIOD=  1 TIMESTEP=130 LAYER=  1 ZONE=  2 ACTIVE CELLS=11172 NUMBER OF EQUATIONS=   11172
 
 SOLVING FOR HEAD 

 NO OUTPUT CONTROL FOR STRESS PERIOD    1   TIME STEP  131
 SOLVING FOR ZETA FOR LAYER     1 ZONE     2

    5480 UPPER PART EQS.      5477 LOWER PART EQS.    BAND WIDTH + 1 =   96
 STRESS PERIOD=  1 TIMESTEP=131 LAYER=  1 ZONE=  2 ACTIVE CELLS=10957 NUMBER OF EQUATIONS=   10957
 
 SOLVING FOR HEAD 

 NO OUTPUT CONTROL FOR STRESS PERIOD    1   TIME STEP  132
 SOLVING FOR ZETA FOR LAYER     1 ZONE     2

    5576 UPPER PART EQS.      5568 LOWER PART EQS.    BAND WIDTH + 1 =   96
 STRESS PERIOD=  1 TIMESTEP=132 LAYER=  1 ZONE=  2 ACTIVE CELLS=11144 NUMBER OF EQUATIONS=   11144
 
 SOLVING FOR HEAD 

 NO OUTPUT CONTROL FOR STRESS PERIOD    1   TIME STEP  133
 SOLVING FOR ZETA FOR LAYER     1 ZONE     2

    5465 UPPER PART EQS.      5466 LOWER PART EQS.    BAND WIDTH + 1 =   96
 STRESS PERIOD=  1 TIMESTEP=133 LAYER=  1 ZONE=  2 ACTIVE CELLS=10931 NUMBER OF EQUATIONS=   10931
 
 SOLVING FOR HEAD 

 NO OUTPUT CONTROL FOR STRESS PERIOD    1   TIME STEP  134
 SOLVING FOR ZETA FOR LAYER     1 ZONE     2

    5563 UPPER PART EQS.      5556 LOWER PART EQS.    BAND WIDTH + 1 =   97
 STRESS PERIOD=  1 TIMESTEP=134 LAYER=  1 ZONE=  2 ACTIVE CELLS=11119 NUMBER OF EQUATIONS=   11119
 
 SOLVING FOR HEAD 

 NO OUTPUT CONTROL FOR STRESS PERIOD    1   TIME STEP  135
 SOLVING FOR ZETA FOR LAYER     1 ZONE     2

    5452 UPPER PART EQS.      5455 LOWER PART EQS.    BAND WIDTH + 1 =   96
 STRESS PERIOD=  1 TIMESTEP=135 LAYER=  1 ZONE=  2 ACTIVE CELLS=10907 NUMBER OF EQUATIONS=   10907
 
 SOLVING FOR HEAD 

 NO OUTPUT CONTROL FOR STRESS PERIOD    1   TIME STEP  136
 SOLVING FOR ZETA FOR LAYER     1 ZONE     2

    5548 UPPER PART EQS.      5541 LOWER PART EQS.    BAND WIDTH + 1 =   96
 STRESS PERIOD=  1 TIMESTEP=136 LAYER=  1 ZONE=  2 ACTIVE CELLS=11089 NUMBER OF EQUATIONS=   11089
 
 SOLVING FOR HEAD 

 NO OUTPUT CONTROL FOR STRESS PERIOD    1   TIME STEP  137
 SOLVING FOR ZETA FOR LAYER     1 ZONE     2

    5445 UPPER PART EQS.      5441 LOWER PART EQS.    BAND WIDTH + 1 =   99
 STRESS PERIOD=  1 TIMESTEP=137 LAYER=  1 ZONE=  2 ACTIVE CELLS=10886 NUMBER OF EQUATIONS=   10886
 
 SOLVING FOR HEAD 

 NO OUTPUT CONTROL FOR STRESS PERIOD    1   TIME STEP  138
 SOLVING FOR ZETA FOR LAYER     1 ZONE     2

    5530 UPPER PART EQS.      5526 LOWER PART EQS.    BAND WIDTH + 1 =   97
 STRESS PERIOD=  1 TIMESTEP=138 LAYER=  1 ZONE=  2 ACTIVE CELLS=11056 NUMBER OF EQUATIONS=   11056
 
 SOLVING FOR HEAD 

 NO OUTPUT CONTROL FOR STRESS PERIOD    1   TIME STEP  139
 SOLVING FOR ZETA FOR LAYER     1 ZONE     2

    5430 UPPER PART EQS.      5427 LOWER PART EQS.    BAND WIDTH + 1 =   98
 STRESS PERIOD=  1 TIMESTEP=139 LAYER=  1 ZONE=  2 ACTIVE CELLS=10857 NUMBER OF EQUATIONS=   10857
 
 SOLVING FOR HEAD 

 NO OUTPUT CONTROL FOR STRESS PERIOD    1   TIME STEP  140
 SOLVING FOR ZETA FOR LAYER     1 ZONE     2

    5519 UPPER PART EQS.      5514 LOWER PART EQS.    BAND WIDTH + 1 =   99
 STRESS PERIOD=  1 TIMESTEP=140 LAYER=  1 ZONE=  2 ACTIVE CELLS=11033 NUMBER OF EQUATIONS=   11033
 
 SOLVING FOR HEAD 

 NO OUTPUT CONTROL FOR STRESS PERIOD    1   TIME STEP  141
 SOLVING FOR ZETA FOR LAYER     1 ZONE     2

    5421 UPPER PART EQS.      5420 LOWER PART EQS.    BAND WIDTH + 1 =   98
 STRESS PERIOD=  1 TIMESTEP=141 LAYER=  1 ZONE=  2 ACTIVE CELLS=10841 NUMBER OF EQUATIONS=   10841
 
 SOLVING FOR HEAD 

 NO OUTPUT CONTROL FOR STRESS PERIOD    1   TIME STEP  142
 SOLVING FOR ZETA FOR LAYER     1 ZONE     2

    5507 UPPER PART EQS.      5504 LOWER PART EQS.    BAND WIDTH + 1 =   99
 STRESS PERIOD=  1 TIMESTEP=142 LAYER=  1 ZONE=  2 ACTIVE CELLS=11011 NUMBER OF EQUATIONS=   11011
 
 SOLVING FOR HEAD 

 NO OUTPUT CONTROL FOR STRESS PERIOD    1   TIME STEP  143
 SOLVING FOR ZETA FOR LAYER     1 ZONE     2

    5418 UPPER PART EQS.      5412 LOWER PART EQS.    BAND WIDTH + 1 =   97
 STRESS PERIOD=  1 TIMESTEP=143 LAYER=  1 ZONE=  2 ACTIVE CELLS=10830 NUMBER OF EQUATIONS=   10830
 
 SOLVING FOR HEAD 

 NO OUTPUT CONTROL FOR STRESS PERIOD    1   TIME STEP  144
 SOLVING FOR ZETA FOR LAYER     1 ZONE     2

    5491 UPPER PART EQS.      5495 LOWER PART EQS.    BAND WIDTH + 1 =   97
 STRESS PERIOD=  1 TIMESTEP=144 LAYER=  1 ZONE=  2 ACTIVE CELLS=10986 NUMBER OF EQUATIONS=   10986
 
 SOLVING FOR HEAD 

 NO OUTPUT CONTROL FOR STRESS PERIOD    1   TIME STEP  145
 SOLVING FOR ZETA FOR LAYER     1 ZONE     2

    5407 UPPER PART EQS.      5398 LOWER PART EQS.    BAND WIDTH + 1 =  100
 STRESS PERIOD=  1 TIMESTEP=145 LAYER=  1 ZONE=  2 ACTIVE CELLS=10805 NUMBER OF EQUATIONS=   10805
 
 SOLVING FOR HEAD 

 NO OUTPUT CONTROL FOR STRESS PERIOD    1   TIME STEP  146
 SOLVING FOR ZETA FOR LAYER     1 ZONE     2

    5481 UPPER PART EQS.      5476 LOWER PART EQS.    BAND WIDTH + 1 =   95
 STRESS PERIOD=  1 TIMESTEP=146 LAYER=  1 ZONE=  2 ACTIVE CELLS=10957 NUMBER OF EQUATIONS=   10957
 
 SOLVING FOR HEAD 

 NO OUTPUT CONTROL FOR STRESS PERIOD    1   TIME STEP  147
 SOLVING FOR ZETA FOR LAYER     1 ZONE     2

    5398 UPPER PART EQS.      5388 LOWER PART EQS.    BAND WIDTH + 1 =   98
 STRESS PERIOD=  1 TIMESTEP=147 LAYER=  1 ZONE=  2 ACTIVE CELLS=10786 NUMBER OF EQUATIONS=   10786
 
 SOLVING FOR HEAD 

 NO OUTPUT CONTROL FOR STRESS PERIOD    1   TIME STEP  148
 SOLVING FOR ZETA FOR LAYER     1 ZONE     2

    5472 UPPER PART EQS.      5468 LOWER PART EQS.    BAND WIDTH + 1 =   95
 STRESS PERIOD=  1 TIMESTEP=148 LAYER=  1 ZONE=  2 ACTIVE CELLS=10940 NUMBER OF EQUATIONS=   10940
 
 SOLVING FOR HEAD 

 NO OUTPUT CONTROL FOR STRESS PERIOD    1   TIME STEP  149
 SOLVING FOR ZETA FOR LAYER     1 ZONE     2

    5379 UPPER PART EQS.      5371 LOWER PART EQS.    BAND WIDTH + 1 =   96
 STRESS PERIOD=  1 TIMESTEP=149 LAYER=  1 ZONE=  2 ACTIVE CELLS=10750 NUMBER OF EQUATIONS=   10750
 
 SOLVING FOR HEAD 

 NO OUTPUT CONTROL FOR STRESS PERIOD    1   TIME STEP  150
 SOLVING FOR ZETA FOR LAYER     1 ZONE     2

    5464 UPPER PART EQS.      5463 LOWER PART EQS.    BAND WIDTH + 1 =   95
 STRESS PERIOD=  1 TIMESTEP=150 LAYER=  1 ZONE=  2 ACTIVE CELLS=10927 NUMBER OF EQUATIONS=   10927
 
 SOLVING FOR HEAD 

 NO OUTPUT CONTROL FOR STRESS PERIOD    1   TIME STEP  151
 SOLVING FOR ZETA FOR LAYER     1 ZONE     2

    5370 UPPER PART EQS.      5358 LOWER PART EQS.    BAND WIDTH + 1 =   98
 STRESS PERIOD=  1 TIMESTEP=151 LAYER=  1 ZONE=  2 ACTIVE CELLS=10728 NUMBER OF EQUATIONS=   10728
 
 SOLVING FOR HEAD 

 NO OUTPUT CONTROL FOR STRESS PERIOD    1   TIME STEP  152
 SOLVING FOR ZETA FOR LAYER     1 ZONE     2

    5457 UPPER PART EQS.      5453 LOWER PART EQS.    BAND WIDTH + 1 =   95
 STRESS PERIOD=  1 TIMESTEP=152 LAYER=  1 ZONE=  2 ACTIVE CELLS=10910 NUMBER OF EQUATIONS=   10910
 
 SOLVING FOR HEAD 

 NO OUTPUT CONTROL FOR STRESS PERIOD    1   TIME STEP  153
 SOLVING FOR ZETA FOR LAYER     1 ZONE     2

    5355 UPPER PART EQS.      5346 LOWER PART EQS.    BAND WIDTH + 1 =   96
 STRESS PERIOD=  1 TIMESTEP=153 LAYER=  1 ZONE=  2 ACTIVE CELLS=10701 NUMBER OF EQUATIONS=   10701
 
 SOLVING FOR HEAD 

 NO OUTPUT CONTROL FOR STRESS PERIOD    1   TIME STEP  154
 SOLVING FOR ZETA FOR LAYER     1 ZONE     2

    5447 UPPER PART EQS.      5442 LOWER PART EQS.    BAND WIDTH + 1 =   95
 STRESS PERIOD=  1 TIMESTEP=154 LAYER=  1 ZONE=  2 ACTIVE CELLS=10889 NUMBER OF EQUATIONS=   10889
 
 SOLVING FOR HEAD 

 NO OUTPUT CONTROL FOR STRESS PERIOD    1   TIME STEP  155
 SOLVING FOR ZETA FOR LAYER     1 ZONE     2

    5341 UPPER PART EQS.      5333 LOWER PART EQS.    BAND WIDTH + 1 =   96
 STRESS PERIOD=  1 TIMESTEP=155 LAYER=  1 ZONE=  2 ACTIVE CELLS=10674 NUMBER OF EQUATIONS=   10674
 
 SOLVING FOR HEAD 

 NO OUTPUT CONTROL FOR STRESS PERIOD    1   TIME STEP  156
 SOLVING FOR ZETA FOR LAYER     1 ZONE     2

    5436 UPPER PART EQS.      5428 LOWER PART EQS.    BAND WIDTH + 1 =   97
 STRESS PERIOD=  1 TIMESTEP=156 LAYER=  1 ZONE=  2 ACTIVE CELLS=10864 NUMBER OF EQUATIONS=   10864
 
 SOLVING FOR HEAD 

 NO OUTPUT CONTROL FOR STRESS PERIOD    1   TIME STEP  157
 SOLVING FOR ZETA FOR LAYER     1 ZONE     2

    5334 UPPER PART EQS.      5324 LOWER PART EQS.    BAND WIDTH + 1 =   97
 STRESS PERIOD=  1 TIMESTEP=157 LAYER=  1 ZONE=  2 ACTIVE CELLS=10658 NUMBER OF EQUATIONS=   10658
 
 SOLVING FOR HEAD 

 NO OUTPUT CONTROL FOR STRESS PERIOD    1   TIME STEP  158
 SOLVING FOR ZETA FOR LAYER     1 ZONE     2

    5429 UPPER PART EQS.      5422 LOWER PART EQS.    BAND WIDTH + 1 =   97
 STRESS PERIOD=  1 TIMESTEP=158 LAYER=  1 ZONE=  2 ACTIVE CELLS=10851 NUMBER OF EQUATIONS=   10851
 
 SOLVING FOR HEAD 

 NO OUTPUT CONTROL FOR STRESS PERIOD    1   TIME STEP  159
 SOLVING FOR ZETA FOR LAYER     1 ZONE     2

    5317 UPPER PART EQS.      5316 LOWER PART EQS.    BAND WIDTH + 1 =   98
 STRESS PERIOD=  1 TIMESTEP=159 LAYER=  1 ZONE=  2 ACTIVE CELLS=10633 NUMBER OF EQUATIONS=   10633
 
 SOLVING FOR HEAD 

 NO OUTPUT CONTROL FOR STRESS PERIOD    1   TIME STEP  160
 SOLVING FOR ZETA FOR LAYER     1 ZONE     2

    5418 UPPER PART EQS.      5409 LOWER PART EQS.    BAND WIDTH + 1 =   97
 STRESS PERIOD=  1 TIMESTEP=160 LAYER=  1 ZONE=  2 ACTIVE CELLS=10827 NUMBER OF EQUATIONS=   10827
 
 SOLVING FOR HEAD 

 NO OUTPUT CONTROL FOR STRESS PERIOD    1   TIME STEP  161
 SOLVING FOR ZETA FOR LAYER     1 ZONE     2

    5308 UPPER PART EQS.      5305 LOWER PART EQS.    BAND WIDTH + 1 =   96
 STRESS PERIOD=  1 TIMESTEP=161 LAYER=  1 ZONE=  2 ACTIVE CELLS=10613 NUMBER OF EQUATIONS=   10613
 
 SOLVING FOR HEAD 

 NO OUTPUT CONTROL FOR STRESS PERIOD    1   TIME STEP  162
 SOLVING FOR ZETA FOR LAYER     1 ZONE     2

    5400 UPPER PART EQS.      5396 LOWER PART EQS.    BAND WIDTH + 1 =   96
 STRESS PERIOD=  1 TIMESTEP=162 LAYER=  1 ZONE=  2 ACTIVE CELLS=10796 NUMBER OF EQUATIONS=   10796
 
 SOLVING FOR HEAD 

 NO OUTPUT CONTROL FOR STRESS PERIOD    1   TIME STEP  163
 SOLVING FOR ZETA FOR LAYER     1 ZONE     2

    5298 UPPER PART EQS.      5303 LOWER PART EQS.    BAND WIDTH + 1 =   95
 STRESS PERIOD=  1 TIMESTEP=163 LAYER=  1 ZONE=  2 ACTIVE CELLS=10601 NUMBER OF EQUATIONS=   10601
 
 SOLVING FOR HEAD 

 NO OUTPUT CONTROL FOR STRESS PERIOD    1   TIME STEP  164
 SOLVING FOR ZETA FOR LAYER     1 ZONE     2

    5391 UPPER PART EQS.      5377 LOWER PART EQS.    BAND WIDTH + 1 =   97
 STRESS PERIOD=  1 TIMESTEP=164 LAYER=  1 ZONE=  2 ACTIVE CELLS=10768 NUMBER OF EQUATIONS=   10768
 
 SOLVING FOR HEAD 

 NO OUTPUT CONTROL FOR STRESS PERIOD    1   TIME STEP  165
 SOLVING FOR ZETA FOR LAYER     1 ZONE     2

    5291 UPPER PART EQS.      5296 LOWER PART EQS.    BAND WIDTH + 1 =   94
 STRESS PERIOD=  1 TIMESTEP=165 LAYER=  1 ZONE=  2 ACTIVE CELLS=10587 NUMBER OF EQUATIONS=   10587
 
 SOLVING FOR HEAD 

 NO OUTPUT CONTROL FOR STRESS PERIOD    1   TIME STEP  166
 SOLVING FOR ZETA FOR LAYER     1 ZONE     2

    5380 UPPER PART EQS.      5367 LOWER PART EQS.    BAND WIDTH + 1 =   96
 STRESS PERIOD=  1 TIMESTEP=166 LAYER=  1 ZONE=  2 ACTIVE CELLS=10747 NUMBER OF EQUATIONS=   10747
 
 SOLVING FOR HEAD 

 NO OUTPUT CONTROL FOR STRESS PERIOD    1   TIME STEP  167
 SOLVING FOR ZETA FOR LAYER     1 ZONE     2

    5280 UPPER PART EQS.      5285 LOWER PART EQS.    BAND WIDTH + 1 =   94
 STRESS PERIOD=  1 TIMESTEP=167 LAYER=  1 ZONE=  2 ACTIVE CELLS=10565 NUMBER OF EQUATIONS=   10565
 
 SOLVING FOR HEAD 

 NO OUTPUT CONTROL FOR STRESS PERIOD    1   TIME STEP  168
 SOLVING FOR ZETA FOR LAYER     1 ZONE     2

    5368 UPPER PART EQS.      5359 LOWER PART EQS.    BAND WIDTH + 1 =   95
 STRESS PERIOD=  1 TIMESTEP=168 LAYER=  1 ZONE=  2 ACTIVE CELLS=10727 NUMBER OF EQUATIONS=   10727
 
 SOLVING FOR HEAD 

 NO OUTPUT CONTROL FOR STRESS PERIOD    1   TIME STEP  169
 SOLVING FOR ZETA FOR LAYER     1 ZONE     2

    5277 UPPER PART EQS.      5281 LOWER PART EQS.    BAND WIDTH + 1 =   95
 STRESS PERIOD=  1 TIMESTEP=169 LAYER=  1 ZONE=  2 ACTIVE CELLS=10558 NUMBER OF EQUATIONS=   10558
 
 SOLVING FOR HEAD 

 NO OUTPUT CONTROL FOR STRESS PERIOD    1   TIME STEP  170
 SOLVING FOR ZETA FOR LAYER     1 ZONE     2

    5355 UPPER PART EQS.      5352 LOWER PART EQS.    BAND WIDTH + 1 =   95
 STRESS PERIOD=  1 TIMESTEP=170 LAYER=  1 ZONE=  2 ACTIVE CELLS=10707 NUMBER OF EQUATIONS=   10707
 
 SOLVING FOR HEAD 

 NO OUTPUT CONTROL FOR STRESS PERIOD    1   TIME STEP  171
 SOLVING FOR ZETA FOR LAYER     1 ZONE     2

    5269 UPPER PART EQS.      5273 LOWER PART EQS.    BAND WIDTH + 1 =   96
 STRESS PERIOD=  1 TIMESTEP=171 LAYER=  1 ZONE=  2 ACTIVE CELLS=10542 NUMBER OF EQUATIONS=   10542
 
 SOLVING FOR HEAD 

 NO OUTPUT CONTROL FOR STRESS PERIOD    1   TIME STEP  172
 SOLVING FOR ZETA FOR LAYER     1 ZONE     2

    5344 UPPER PART EQS.      5340 LOWER PART EQS.    BAND WIDTH + 1 =   95
 STRESS PERIOD=  1 TIMESTEP=172 LAYER=  1 ZONE=  2 ACTIVE CELLS=10684 NUMBER OF EQUATIONS=   10684
 
 SOLVING FOR HEAD 

 NO OUTPUT CONTROL FOR STRESS PERIOD    1   TIME STEP  173
 SOLVING FOR ZETA FOR LAYER     1 ZONE     2

    5263 UPPER PART EQS.      5261 LOWER PART EQS.    BAND WIDTH + 1 =   98
 STRESS PERIOD=  1 TIMESTEP=173 LAYER=  1 ZONE=  2 ACTIVE CELLS=10524 NUMBER OF EQUATIONS=   10524
 
 SOLVING FOR HEAD 

 NO OUTPUT CONTROL FOR STRESS PERIOD    1   TIME STEP  174
 SOLVING FOR ZETA FOR LAYER     1 ZONE     2

    5333 UPPER PART EQS.      5336 LOWER PART EQS.    BAND WIDTH + 1 =   96
 STRESS PERIOD=  1 TIMESTEP=174 LAYER=  1 ZONE=  2 ACTIVE CELLS=10669 NUMBER OF EQUATIONS=   10669
 
 SOLVING FOR HEAD 

 NO OUTPUT CONTROL FOR STRESS PERIOD    1   TIME STEP  175
 SOLVING FOR ZETA FOR LAYER     1 ZONE     2

    5250 UPPER PART EQS.      5251 LOWER PART EQS.    BAND WIDTH + 1 =   97
 STRESS PERIOD=  1 TIMESTEP=175 LAYER=  1 ZONE=  2 ACTIVE CELLS=10501 NUMBER OF EQUATIONS=   10501
 
 SOLVING FOR HEAD 

 NO OUTPUT CONTROL FOR STRESS PERIOD    1   TIME STEP  176
 SOLVING FOR ZETA FOR LAYER     1 ZONE     2

    5326 UPPER PART EQS.      5325 LOWER PART EQS.    BAND WIDTH + 1 =   96
 STRESS PERIOD=  1 TIMESTEP=176 LAYER=  1 ZONE=  2 ACTIVE CELLS=10651 NUMBER OF EQUATIONS=   10651
 
 SOLVING FOR HEAD 

 NO OUTPUT CONTROL FOR STRESS PERIOD    1   TIME STEP  177
 SOLVING FOR ZETA FOR LAYER     1 ZONE     2

    5247 UPPER PART EQS.      5242 LOWER PART EQS.    BAND WIDTH + 1 =   98
 STRESS PERIOD=  1 TIMESTEP=177 LAYER=  1 ZONE=  2 ACTIVE CELLS=10489 NUMBER OF EQUATIONS=   10489
 
 SOLVING FOR HEAD 

 NO OUTPUT CONTROL FOR STRESS PERIOD    1   TIME STEP  178
 SOLVING FOR ZETA FOR LAYER     1 ZONE     2

    5321 UPPER PART EQS.      5319 LOWER PART EQS.    BAND WIDTH + 1 =   95
 STRESS PERIOD=  1 TIMESTEP=178 LAYER=  1 ZONE=  2 ACTIVE CELLS=10640 NUMBER OF EQUATIONS=   10640
 
 SOLVING FOR HEAD 

 NO OUTPUT CONTROL FOR STRESS PERIOD    1   TIME STEP  179
 SOLVING FOR ZETA FOR LAYER     1 ZONE     2

    5237 UPPER PART EQS.      5235 LOWER PART EQS.    BAND WIDTH + 1 =   98
 STRESS PERIOD=  1 TIMESTEP=179 LAYER=  1 ZONE=  2 ACTIVE CELLS=10472 NUMBER OF EQUATIONS=   10472
 
 SOLVING FOR HEAD 

 NO OUTPUT CONTROL FOR STRESS PERIOD    1   TIME STEP  180
 SOLVING FOR ZETA FOR LAYER     1 ZONE     2

    5314 UPPER PART EQS.      5313 LOWER PART EQS.    BAND WIDTH + 1 =   95
 STRESS PERIOD=  1 TIMESTEP=180 LAYER=  1 ZONE=  2 ACTIVE CELLS=10627 NUMBER OF EQUATIONS=   10627
 
 SOLVING FOR HEAD 

 NO OUTPUT CONTROL FOR STRESS PERIOD    1   TIME STEP  181
 SOLVING FOR ZETA FOR LAYER     1 ZONE     2

    5236 UPPER PART EQS.      5224 LOWER PART EQS.    BAND WIDTH + 1 =   99
 STRESS PERIOD=  1 TIMESTEP=181 LAYER=  1 ZONE=  2 ACTIVE CELLS=10460 NUMBER OF EQUATIONS=   10460
 
 SOLVING FOR HEAD 

 NO OUTPUT CONTROL FOR STRESS PERIOD    1   TIME STEP  182
 SOLVING FOR ZETA FOR LAYER     1 ZONE     2

    5308 UPPER PART EQS.      5310 LOWER PART EQS.    BAND WIDTH + 1 =   95
 STRESS PERIOD=  1 TIMESTEP=182 LAYER=  1 ZONE=  2 ACTIVE CELLS=10618 NUMBER OF EQUATIONS=   10618
 
 SOLVING FOR HEAD 

 NO OUTPUT CONTROL FOR STRESS PERIOD    1   TIME STEP  183
 SOLVING FOR ZETA FOR LAYER     1 ZONE     2

    5228 UPPER PART EQS.      5222 LOWER PART EQS.    BAND WIDTH + 1 =   97
 STRESS PERIOD=  1 TIMESTEP=183 LAYER=  1 ZONE=  2 ACTIVE CELLS=10450 NUMBER OF EQUATIONS=   10450
 
 SOLVING FOR HEAD 

 NO OUTPUT CONTROL FOR STRESS PERIOD    1   TIME STEP  184
 SOLVING FOR ZETA FOR LAYER     1 ZONE     2

    5297 UPPER PART EQS.      5302 LOWER PART EQS.    BAND WIDTH + 1 =   96
 STRESS PERIOD=  1 TIMESTEP=184 LAYER=  1 ZONE=  2 ACTIVE CELLS=10599 NUMBER OF EQUATIONS=   10599
 
 SOLVING FOR HEAD 

 NO OUTPUT CONTROL FOR STRESS PERIOD    1   TIME STEP  185
 SOLVING FOR ZETA FOR LAYER     1 ZONE     2

    5220 UPPER PART EQS.      5203 LOWER PART EQS.    BAND WIDTH + 1 =  102
 STRESS PERIOD=  1 TIMESTEP=185 LAYER=  1 ZONE=  2 ACTIVE CELLS=10423 NUMBER OF EQUATIONS=   10423
 
 SOLVING FOR HEAD 

 NO OUTPUT CONTROL FOR STRESS PERIOD    1   TIME STEP  186
 SOLVING FOR ZETA FOR LAYER     1 ZONE     2

    5284 UPPER PART EQS.      5290 LOWER PART EQS.    BAND WIDTH + 1 =   96
 STRESS PERIOD=  1 TIMESTEP=186 LAYER=  1 ZONE=  2 ACTIVE CELLS=10574 NUMBER OF EQUATIONS=   10574
 
 SOLVING FOR HEAD 

 NO OUTPUT CONTROL FOR STRESS PERIOD    1   TIME STEP  187
 SOLVING FOR ZETA FOR LAYER     1 ZONE     2

    5207 UPPER PART EQS.      5195 LOWER PART EQS.    BAND WIDTH + 1 =  102
 STRESS PERIOD=  1 TIMESTEP=187 LAYER=  1 ZONE=  2 ACTIVE CELLS=10402 NUMBER OF EQUATIONS=   10402
 
 SOLVING FOR HEAD 

 NO OUTPUT CONTROL FOR STRESS PERIOD    1   TIME STEP  188
 SOLVING FOR ZETA FOR LAYER     1 ZONE     2

    5273 UPPER PART EQS.      5282 LOWER PART EQS.    BAND WIDTH + 1 =   95
 STRESS PERIOD=  1 TIMESTEP=188 LAYER=  1 ZONE=  2 ACTIVE CELLS=10555 NUMBER OF EQUATIONS=   10555
 
 SOLVING FOR HEAD 

 NO OUTPUT CONTROL FOR STRESS PERIOD    1   TIME STEP  189
 SOLVING FOR ZETA FOR LAYER     1 ZONE     2

    5199 UPPER PART EQS.      5184 LOWER PART EQS.    BAND WIDTH + 1 =  101
 STRESS PERIOD=  1 TIMESTEP=189 LAYER=  1 ZONE=  2 ACTIVE CELLS=10383 NUMBER OF EQUATIONS=   10383
 
 SOLVING FOR HEAD 

 NO OUTPUT CONTROL FOR STRESS PERIOD    1   TIME STEP  190
 SOLVING FOR ZETA FOR LAYER     1 ZONE     2

    5263 UPPER PART EQS.      5274 LOWER PART EQS.    BAND WIDTH + 1 =   99
 STRESS PERIOD=  1 TIMESTEP=190 LAYER=  1 ZONE=  2 ACTIVE CELLS=10537 NUMBER OF EQUATIONS=   10537
 
 SOLVING FOR HEAD 

 NO OUTPUT CONTROL FOR STRESS PERIOD    1   TIME STEP  191
 SOLVING FOR ZETA FOR LAYER     1 ZONE     2

    5189 UPPER PART EQS.      5175 LOWER PART EQS.    BAND WIDTH + 1 =  106
 INSUFFICIENT MEMORY FOR DE4 SOLVER:
 MXBW MUST BE AT LEAST  106
 
 SOLVING FOR HEAD 

 NO OUTPUT CONTROL FOR STRESS PERIOD    1   TIME STEP  192
 SOLVING FOR ZETA FOR LAYER     1 ZONE     2

    5351 UPPER PART EQS.      5347 LOWER PART EQS.    BAND WIDTH + 1 =   95
 STRESS PERIOD=  1 TIMESTEP=192 LAYER=  1 ZONE=  2 ACTIVE CELLS=10698 NUMBER OF EQUATIONS=   10698
 
 SOLVING FOR HEAD 

 NO OUTPUT CONTROL FOR STRESS PERIOD    1   TIME STEP  193
 SOLVING FOR ZETA FOR LAYER     1 ZONE     2

    5094 UPPER PART EQS.      5094 LOWER PART EQS.    BAND WIDTH + 1 =   94
 STRESS PERIOD=  1 TIMESTEP=193 LAYER=  1 ZONE=  2 ACTIVE CELLS=10188 NUMBER OF EQUATIONS=   10188
 
 SOLVING FOR HEAD 

 NO OUTPUT CONTROL FOR STRESS PERIOD    1   TIME STEP  194
 SOLVING FOR ZETA FOR LAYER     1 ZONE     2

    5342 UPPER PART EQS.      5338 LOWER PART EQS.    BAND WIDTH + 1 =   96
 STRESS PERIOD=  1 TIMESTEP=194 LAYER=  1 ZONE=  2 ACTIVE CELLS=10680 NUMBER OF EQUATIONS=   10680
 
 SOLVING FOR HEAD 

 NO OUTPUT CONTROL FOR STRESS PERIOD    1   TIME STEP  195
 SOLVING FOR ZETA FOR LAYER     1 ZONE     2

    5092 UPPER PART EQS.      5093 LOWER PART EQS.    BAND WIDTH + 1 =   94
 STRESS PERIOD=  1 TIMESTEP=195 LAYER=  1 ZONE=  2 ACTIVE CELLS=10185 NUMBER OF EQUATIONS=   10185
 
 SOLVING FOR HEAD 

 NO OUTPUT CONTROL FOR STRESS PERIOD    1   TIME STEP  196
 SOLVING FOR ZETA FOR LAYER     1 ZONE     2

    5331 UPPER PART EQS.      5331 LOWER PART EQS.    BAND WIDTH + 1 =   96
 STRESS PERIOD=  1 TIMESTEP=196 LAYER=  1 ZONE=  2 ACTIVE CELLS=10662 NUMBER OF EQUATIONS=   10662
 
 SOLVING FOR HEAD 

 NO OUTPUT CONTROL FOR STRESS PERIOD    1   TIME STEP  197
 SOLVING FOR ZETA FOR LAYER     1 ZONE     2

    5091 UPPER PART EQS.      5095 LOWER PART EQS.    BAND WIDTH + 1 =   94
 STRESS PERIOD=  1 TIMESTEP=197 LAYER=  1 ZONE=  2 ACTIVE CELLS=10186 NUMBER OF EQUATIONS=   10186
 
 SOLVING FOR HEAD 

 NO OUTPUT CONTROL FOR STRESS PERIOD    1   TIME STEP  198
 SOLVING FOR ZETA FOR LAYER     1 ZONE     2

    5323 UPPER PART EQS.      5310 LOWER PART EQS.    BAND WIDTH + 1 =   96
 STRESS PERIOD=  1 TIMESTEP=198 LAYER=  1 ZONE=  2 ACTIVE CELLS=10633 NUMBER OF EQUATIONS=   10633
 
 SOLVING FOR HEAD 

 NO OUTPUT CONTROL FOR STRESS PERIOD    1   TIME STEP  199
 SOLVING FOR ZETA FOR LAYER     1 ZONE     2

    5092 UPPER PART EQS.      5092 LOWER PART EQS.    BAND WIDTH + 1 =   95
 STRESS PERIOD=  1 TIMESTEP=199 LAYER=  1 ZONE=  2 ACTIVE CELLS=10184 NUMBER OF EQUATIONS=   10184
 
 SOLVING FOR HEAD 

 OUTPUT CONTROL FOR STRESS PERIOD    1   TIME STEP  200
    PRINT BUDGET
    SAVE HEAD FOR ALL LAYERS
 SOLVING FOR ZETA FOR LAYER     1 ZONE     2

    5310 UPPER PART EQS.      5298 LOWER PART EQS.    BAND WIDTH + 1 =   95
 STRESS PERIOD=  1 TIMESTEP=200 LAYER=  1 ZONE=  2 ACTIVE CELLS=10608 NUMBER OF EQUATIONS=   10608
 UBUDSV SAVING "      ZETASRF  1" ON UNIT 55 AT TIME STEP200, STRESS PERIOD    1


                      VOLUMETRIC SWI ZONE BUDGET FOR ENTIRE MODEL
                     AT END OF TIME STEP  200 IN STRESS PERIOD   1
                                      ZONE     1
  -----------------------------------------------------------------------------------

        CUMULATIVE VOLUMES      L**3       RATES FOR THIS TIME STEP      L**3/T
        ------------------                 ------------------------

              IN:                                      IN:
              ---                                      ---
             BOUNDARIES =  8881790976.0000            BOUNDARIES =      607926.9375
          CONSTANT HEAD =           0.0000         CONSTANT HEAD =           0.0000
            ZONE CHANGE =  3280687872.0000           ZONE CHANGE =       83591.2344
       ZONE CHG TIP/TOE =    11834720.0000      ZONE CHG TIP/TOE =         213.4510
            ZONE MIXING =           0.0000           ZONE MIXING =           0.0000

               TOTAL IN = 12174313472.0000              TOTAL IN =      691731.6250

             OUT:                                     OUT:
             ----                                     ----
             BOUNDARIES =  6752320000.0000            BOUNDARIES =      420953.9062
          CONSTANT HEAD =           0.0000         CONSTANT HEAD =           0.0000
            ZONE CHANGE =  5583117312.0000           ZONE CHANGE =      294828.8438
       ZONE CHG TIP/TOE =     8060738.5000      ZONE CHG TIP/TOE =         140.0993
            ZONE MIXING =           0.0000           ZONE MIXING =           0.0000

              TOTAL OUT = 12343498752.0000             TOTAL OUT =      715922.8750

               IN - OUT =  -169185280.0000              IN - OUT =      -24191.2500

    PERCENT DISCREPANCY =          -1.38     PERCENT DISCREPANCY =          -3.44



                      VOLUMETRIC SWI ZONE BUDGET FOR ENTIRE MODEL
                     AT END OF TIME STEP  200 IN STRESS PERIOD   1
                                      ZONE     2
  -----------------------------------------------------------------------------------

        CUMULATIVE VOLUMES      L**3       RATES FOR THIS TIME STEP      L**3/T
        ------------------                 ------------------------

              IN:                                      IN:
              ---                                      ---
             BOUNDARIES =    44956148.0000            BOUNDARIES =        2698.8293
          CONSTANT HEAD =           0.0000         CONSTANT HEAD =           0.0000
            ZONE CHANGE =  5583117312.0000           ZONE CHANGE =      294828.8438
       ZONE CHG TIP/TOE =   207521792.0000      ZONE CHG TIP/TOE =       24403.2070
            ZONE MIXING =           0.0000           ZONE MIXING =           0.0000

               TOTAL IN =  5835595264.0000              TOTAL IN =      321930.9062

             OUT:                                     OUT:
             ----                                     ----
             BOUNDARIES =  2174448128.0000            BOUNDARIES =      189671.8281
          CONSTANT HEAD =           0.0000         CONSTANT HEAD =           0.0000
            ZONE CHANGE =  3480149248.0000           ZONE CHANGE =      107854.3359
       ZONE CHG TIP/TOE =    11834720.0000      ZONE CHG TIP/TOE =         213.4510
            ZONE MIXING =           0.0000           ZONE MIXING =           0.0000

              TOTAL OUT =  5666432512.0000             TOTAL OUT =      297739.5938

               IN - OUT =   169162752.0000              IN - OUT =       24191.3125

    PERCENT DISCREPANCY =           2.94     PERCENT DISCREPANCY =           7.81


 HEAD WILL BE SAVED ON UNIT   51 AT END OF TIME STEP  200, STRESS PERIOD    1
1
  VOLUMETRIC BUDGET FOR ENTIRE MODEL AT END OF TIME STEP  200, STRESS PERIOD   1
  ------------------------------------------------------------------------------

     CUMULATIVE VOLUMES      L**3       RATES FOR THIS TIME STEP      L**3/T
     ------------------                 ------------------------

           IN:                                      IN:
           ---                                      ---
             STORAGE =           0.0000               STORAGE =           0.0000
       CONSTANT HEAD =           0.0000         CONSTANT HEAD =           0.0000
          SWIADDTOCH =           0.0000            SWIADDTOCH =           0.0000
     HEAD DEP BOUNDS =           0.0000       HEAD DEP BOUNDS =           0.0000
            RECHARGE =  9855567872.0000              RECHARGE =      674575.3125

            TOTAL IN =  9855567872.0000              TOTAL IN =      674575.3125

          OUT:                                     OUT:
          ----                                     ----
             STORAGE =           0.0000               STORAGE =           0.0000
       CONSTANT HEAD =           0.0000         CONSTANT HEAD =           0.0000
          SWIADDTOCH =           0.0000            SWIADDTOCH =           0.0000
     HEAD DEP BOUNDS =  9812513792.0000       HEAD DEP BOUNDS =      671630.5625
            RECHARGE =    43022964.0000              RECHARGE =        2944.7622

           TOTAL OUT =  9855537152.0000             TOTAL OUT =      674575.3125

            IN - OUT =       30720.0000              IN - OUT =           0.0000

 PERCENT DISCREPANCY =           0.00     PERCENT DISCREPANCY =           0.00






         TIME SUMMARY AT END OF TIME STEP  200 IN STRESS PERIOD    1
                    SECONDS     MINUTES      HOURS       DAYS        YEARS
                    -----------------------------------------------------------
   TIME STEP LENGTH 6.31152E+06 1.05192E+05  1753.2      73.050     0.20000    
 STRESS PERIOD TIME 1.26230E+09 2.10384E+07 3.50639E+05  14610.      40.000    
         TOTAL TIME 1.26230E+09 2.10384E+07 3.50639E+05  14610.      40.000    
1
 
 SOLVING FOR HEAD 

 NO OUTPUT CONTROL FOR STRESS PERIOD    1   TIME STEP  201
 SOLVING FOR ZETA FOR LAYER     1 ZONE     2

    5086 UPPER PART EQS.      5096 LOWER PART EQS.    BAND WIDTH + 1 =   95
 STRESS PERIOD=  1 TIMESTEP=201 LAYER=  1 ZONE=  2 ACTIVE CELLS=10182 NUMBER OF EQUATIONS=   10182
 
 SOLVING FOR HEAD 

 NO OUTPUT CONTROL FOR STRESS PERIOD    1   TIME STEP  202
 SOLVING FOR ZETA FOR LAYER     1 ZONE     2

    5300 UPPER PART EQS.      5286 LOWER PART EQS.    BAND WIDTH + 1 =   95
 STRESS PERIOD=  1 TIMESTEP=202 LAYER=  1 ZONE=  2 ACTIVE CELLS=10586 NUMBER OF EQUATIONS=   10586
 
 SOLVING FOR HEAD 

 NO OUTPUT CONTROL FOR STRESS PERIOD    1   TIME STEP  203
 SOLVING FOR ZETA FOR LAYER     1 ZONE     2

    5082 UPPER PART EQS.      5089 LOWER PART EQS.    BAND WIDTH + 1 =   96
 STRESS PERIOD=  1 TIMESTEP=203 LAYER=  1 ZONE=  2 ACTIVE CELLS=10171 NUMBER OF EQUATIONS=   10171
 
 SOLVING FOR HEAD 

 NO OUTPUT CONTROL FOR STRESS PERIOD    1   TIME STEP  204
 SOLVING FOR ZETA FOR LAYER     1 ZONE     2

    5289 UPPER PART EQS.      5280 LOWER PART EQS.    BAND WIDTH + 1 =   97
 STRESS PERIOD=  1 TIMESTEP=204 LAYER=  1 ZONE=  2 ACTIVE CELLS=10569 NUMBER OF EQUATIONS=   10569
 
 SOLVING FOR HEAD 

 NO OUTPUT CONTROL FOR STRESS PERIOD    1   TIME STEP  205
 SOLVING FOR ZETA FOR LAYER     1 ZONE     2

    5083 UPPER PART EQS.      5084 LOWER PART EQS.    BAND WIDTH + 1 =   96
 STRESS PERIOD=  1 TIMESTEP=205 LAYER=  1 ZONE=  2 ACTIVE CELLS=10167 NUMBER OF EQUATIONS=   10167
 
 SOLVING FOR HEAD 

 NO OUTPUT CONTROL FOR STRESS PERIOD    1   TIME STEP  206
 SOLVING FOR ZETA FOR LAYER     1 ZONE     2

    5283 UPPER PART EQS.      5270 LOWER PART EQS.    BAND WIDTH + 1 =   96
 STRESS PERIOD=  1 TIMESTEP=206 LAYER=  1 ZONE=  2 ACTIVE CELLS=10553 NUMBER OF EQUATIONS=   10553
 
 SOLVING FOR HEAD 

 NO OUTPUT CONTROL FOR STRESS PERIOD    1   TIME STEP  207
 SOLVING FOR ZETA FOR LAYER     1 ZONE     2

    5079 UPPER PART EQS.      5078 LOWER PART EQS.    BAND WIDTH + 1 =   95
 STRESS PERIOD=  1 TIMESTEP=207 LAYER=  1 ZONE=  2 ACTIVE CELLS=10157 NUMBER OF EQUATIONS=   10157
 
 SOLVING FOR HEAD 

 NO OUTPUT CONTROL FOR STRESS PERIOD    1   TIME STEP  208
 SOLVING FOR ZETA FOR LAYER     1 ZONE     2

    5274 UPPER PART EQS.      5261 LOWER PART EQS.    BAND WIDTH + 1 =   98
 STRESS PERIOD=  1 TIMESTEP=208 LAYER=  1 ZONE=  2 ACTIVE CELLS=10535 NUMBER OF EQUATIONS=   10535
 
 SOLVING FOR HEAD 

 NO OUTPUT CONTROL FOR STRESS PERIOD    1   TIME STEP  209
 SOLVING FOR ZETA FOR LAYER     1 ZONE     2

    5075 UPPER PART EQS.      5072 LOWER PART EQS.    BAND WIDTH + 1 =   95
 STRESS PERIOD=  1 TIMESTEP=209 LAYER=  1 ZONE=  2 ACTIVE CELLS=10147 NUMBER OF EQUATIONS=   10147
 
 SOLVING FOR HEAD 

 NO OUTPUT CONTROL FOR STRESS PERIOD    1   TIME STEP  210
 SOLVING FOR ZETA FOR LAYER     1 ZONE     2

    5259 UPPER PART EQS.      5253 LOWER PART EQS.    BAND WIDTH + 1 =   95
 STRESS PERIOD=  1 TIMESTEP=210 LAYER=  1 ZONE=  2 ACTIVE CELLS=10512 NUMBER OF EQUATIONS=   10512
 
 SOLVING FOR HEAD 

 NO OUTPUT CONTROL FOR STRESS PERIOD    1   TIME STEP  211
 SOLVING FOR ZETA FOR LAYER     1 ZONE     2

    5067 UPPER PART EQS.      5070 LOWER PART EQS.    BAND WIDTH + 1 =   94
 STRESS PERIOD=  1 TIMESTEP=211 LAYER=  1 ZONE=  2 ACTIVE CELLS=10137 NUMBER OF EQUATIONS=   10137
 
 SOLVING FOR HEAD 

 NO OUTPUT CONTROL FOR STRESS PERIOD    1   TIME STEP  212
 SOLVING FOR ZETA FOR LAYER     1 ZONE     2

    5251 UPPER PART EQS.      5240 LOWER PART EQS.    BAND WIDTH + 1 =  100
 STRESS PERIOD=  1 TIMESTEP=212 LAYER=  1 ZONE=  2 ACTIVE CELLS=10491 NUMBER OF EQUATIONS=   10491
 
 SOLVING FOR HEAD 

 NO OUTPUT CONTROL FOR STRESS PERIOD    1   TIME STEP  213
 SOLVING FOR ZETA FOR LAYER     1 ZONE     2

    5063 UPPER PART EQS.      5063 LOWER PART EQS.    BAND WIDTH + 1 =   95
 STRESS PERIOD=  1 TIMESTEP=213 LAYER=  1 ZONE=  2 ACTIVE CELLS=10126 NUMBER OF EQUATIONS=   10126
 
 SOLVING FOR HEAD 

 NO OUTPUT CONTROL FOR STRESS PERIOD    1   TIME STEP  214
 SOLVING FOR ZETA FOR LAYER     1 ZONE     2

    5238 UPPER PART EQS.      5231 LOWER PART EQS.    BAND WIDTH + 1 =   99
 STRESS PERIOD=  1 TIMESTEP=214 LAYER=  1 ZONE=  2 ACTIVE CELLS=10469 NUMBER OF EQUATIONS=   10469
 
 SOLVING FOR HEAD 

 NO OUTPUT CONTROL FOR STRESS PERIOD    1   TIME STEP  215
 SOLVING FOR ZETA FOR LAYER     1 ZONE     2

    5056 UPPER PART EQS.      5057 LOWER PART EQS.    BAND WIDTH + 1 =   95
 STRESS PERIOD=  1 TIMESTEP=215 LAYER=  1 ZONE=  2 ACTIVE CELLS=10113 NUMBER OF EQUATIONS=   10113
 
 SOLVING FOR HEAD 

 NO OUTPUT CONTROL FOR STRESS PERIOD    1   TIME STEP  216
 SOLVING FOR ZETA FOR LAYER     1 ZONE     2

    5231 UPPER PART EQS.      5223 LOWER PART EQS.    BAND WIDTH + 1 =   97
 STRESS PERIOD=  1 TIMESTEP=216 LAYER=  1 ZONE=  2 ACTIVE CELLS=10454 NUMBER OF EQUATIONS=   10454
 
 SOLVING FOR HEAD 

 NO OUTPUT CONTROL FOR STRESS PERIOD    1   TIME STEP  217
 SOLVING FOR ZETA FOR LAYER     1 ZONE     2

    5051 UPPER PART EQS.      5049 LOWER PART EQS.    BAND WIDTH + 1 =   94
 STRESS PERIOD=  1 TIMESTEP=217 LAYER=  1 ZONE=  2 ACTIVE CELLS=10100 NUMBER OF EQUATIONS=   10100
 
 SOLVING FOR HEAD 

 NO OUTPUT CONTROL FOR STRESS PERIOD    1   TIME STEP  218
 SOLVING FOR ZETA FOR LAYER     1 ZONE     2

    5226 UPPER PART EQS.      5216 LOWER PART EQS.    BAND WIDTH + 1 =   98
 STRESS PERIOD=  1 TIMESTEP=218 LAYER=  1 ZONE=  2 ACTIVE CELLS=10442 NUMBER OF EQUATIONS=   10442
 
 SOLVING FOR HEAD 

 NO OUTPUT CONTROL FOR STRESS PERIOD    1   TIME STEP  219
 SOLVING FOR ZETA FOR LAYER     1 ZONE     2

    5046 UPPER PART EQS.      5043 LOWER PART EQS.    BAND WIDTH + 1 =   94
 STRESS PERIOD=  1 TIMESTEP=219 LAYER=  1 ZONE=  2 ACTIVE CELLS=10089 NUMBER OF EQUATIONS=   10089
 
 SOLVING FOR HEAD 

 NO OUTPUT CONTROL FOR STRESS PERIOD    1   TIME STEP  220
 SOLVING FOR ZETA FOR LAYER     1 ZONE     2

    5216 UPPER PART EQS.      5214 LOWER PART EQS.    BAND WIDTH + 1 =   96
 STRESS PERIOD=  1 TIMESTEP=220 LAYER=  1 ZONE=  2 ACTIVE CELLS=10430 NUMBER OF EQUATIONS=   10430
 
 SOLVING FOR HEAD 

 NO OUTPUT CONTROL FOR STRESS PERIOD    1   TIME STEP  221
 SOLVING FOR ZETA FOR LAYER     1 ZONE     2

    5034 UPPER PART EQS.      5038 LOWER PART EQS.    BAND WIDTH + 1 =   94
 STRESS PERIOD=  1 TIMESTEP=221 LAYER=  1 ZONE=  2 ACTIVE CELLS=10072 NUMBER OF EQUATIONS=   10072
 
 SOLVING FOR HEAD 

 NO OUTPUT CONTROL FOR STRESS PERIOD    1   TIME STEP  222
 SOLVING FOR ZETA FOR LAYER     1 ZONE     2

    5208 UPPER PART EQS.      5209 LOWER PART EQS.    BAND WIDTH + 1 =   97
 STRESS PERIOD=  1 TIMESTEP=222 LAYER=  1 ZONE=  2 ACTIVE CELLS=10417 NUMBER OF EQUATIONS=   10417
 
 SOLVING FOR HEAD 

 NO OUTPUT CONTROL FOR STRESS PERIOD    1   TIME STEP  223
 SOLVING FOR ZETA FOR LAYER     1 ZONE     2

    5032 UPPER PART EQS.      5033 LOWER PART EQS.    BAND WIDTH + 1 =   94
 STRESS PERIOD=  1 TIMESTEP=223 LAYER=  1 ZONE=  2 ACTIVE CELLS=10065 NUMBER OF EQUATIONS=   10065
 
 SOLVING FOR HEAD 

 NO OUTPUT CONTROL FOR STRESS PERIOD    1   TIME STEP  224
 SOLVING FOR ZETA FOR LAYER     1 ZONE     2

    5203 UPPER PART EQS.      5202 LOWER PART EQS.    BAND WIDTH + 1 =   97
 STRESS PERIOD=  1 TIMESTEP=224 LAYER=  1 ZONE=  2 ACTIVE CELLS=10405 NUMBER OF EQUATIONS=   10405
 
 SOLVING FOR HEAD 

 NO OUTPUT CONTROL FOR STRESS PERIOD    1   TIME STEP  225
 SOLVING FOR ZETA FOR LAYER     1 ZONE     2

    5025 UPPER PART EQS.      5029 LOWER PART EQS.    BAND WIDTH + 1 =   94
 STRESS PERIOD=  1 TIMESTEP=225 LAYER=  1 ZONE=  2 ACTIVE CELLS=10054 NUMBER OF EQUATIONS=   10054
 
 SOLVING FOR HEAD 

 NO OUTPUT CONTROL FOR STRESS PERIOD    1   TIME STEP  226
 SOLVING FOR ZETA FOR LAYER     1 ZONE     2

    5198 UPPER PART EQS.      5193 LOWER PART EQS.    BAND WIDTH + 1 =   98
 STRESS PERIOD=  1 TIMESTEP=226 LAYER=  1 ZONE=  2 ACTIVE CELLS=10391 NUMBER OF EQUATIONS=   10391
 
 SOLVING FOR HEAD 

 NO OUTPUT CONTROL FOR STRESS PERIOD    1   TIME STEP  227
 SOLVING FOR ZETA FOR LAYER     1 ZONE     2

    5020 UPPER PART EQS.      5018 LOWER PART EQS.    BAND WIDTH + 1 =   94
 STRESS PERIOD=  1 TIMESTEP=227 LAYER=  1 ZONE=  2 ACTIVE CELLS=10038 NUMBER OF EQUATIONS=   10038
 
 SOLVING FOR HEAD 

 NO OUTPUT CONTROL FOR STRESS PERIOD    1   TIME STEP  228
 SOLVING FOR ZETA FOR LAYER     1 ZONE     2

    5191 UPPER PART EQS.      5184 LOWER PART EQS.    BAND WIDTH + 1 =   99
 STRESS PERIOD=  1 TIMESTEP=228 LAYER=  1 ZONE=  2 ACTIVE CELLS=10375 NUMBER OF EQUATIONS=   10375
 
 SOLVING FOR HEAD 

 NO OUTPUT CONTROL FOR STRESS PERIOD    1   TIME STEP  229
 SOLVING FOR ZETA FOR LAYER     1 ZONE     2

    5017 UPPER PART EQS.      5009 LOWER PART EQS.    BAND WIDTH + 1 =   93
 STRESS PERIOD=  1 TIMESTEP=229 LAYER=  1 ZONE=  2 ACTIVE CELLS=10026 NUMBER OF EQUATIONS=   10026
 
 SOLVING FOR HEAD 

 NO OUTPUT CONTROL FOR STRESS PERIOD    1   TIME STEP  230
 SOLVING FOR ZETA FOR LAYER     1 ZONE     2

    5185 UPPER PART EQS.      5178 LOWER PART EQS.    BAND WIDTH + 1 =   95
 STRESS PERIOD=  1 TIMESTEP=230 LAYER=  1 ZONE=  2 ACTIVE CELLS=10363 NUMBER OF EQUATIONS=   10363
 
 SOLVING FOR HEAD 

 NO OUTPUT CONTROL FOR STRESS PERIOD    1   TIME STEP  231
 SOLVING FOR ZETA FOR LAYER     1 ZONE     2

    5007 UPPER PART EQS.      5006 LOWER PART EQS.    BAND WIDTH + 1 =   94
 STRESS PERIOD=  1 TIMESTEP=231 LAYER=  1 ZONE=  2 ACTIVE CELLS=10013 NUMBER OF EQUATIONS=   10013
 
 SOLVING FOR HEAD 

 NO OUTPUT CONTROL FOR STRESS PERIOD    1   TIME STEP  232
 SOLVING FOR ZETA FOR LAYER     1 ZONE     2

    5171 UPPER PART EQS.      5169 LOWER PART EQS.    BAND WIDTH + 1 =   97
 STRESS PERIOD=  1 TIMESTEP=232 LAYER=  1 ZONE=  2 ACTIVE CELLS=10340 NUMBER OF EQUATIONS=   10340
 
 SOLVING FOR HEAD 

 NO OUTPUT CONTROL FOR STRESS PERIOD    1   TIME STEP  233
 SOLVING FOR ZETA FOR LAYER     1 ZONE     2

    5002 UPPER PART EQS.      4996 LOWER PART EQS.    BAND WIDTH + 1 =   94
 STRESS PERIOD=  1 TIMESTEP=233 LAYER=  1 ZONE=  2 ACTIVE CELLS= 9998 NUMBER OF EQUATIONS=    9998
 
 SOLVING FOR HEAD 

 NO OUTPUT CONTROL FOR STRESS PERIOD    1   TIME STEP  234
 SOLVING FOR ZETA FOR LAYER     1 ZONE     2

    5162 UPPER PART EQS.      5158 LOWER PART EQS.    BAND WIDTH + 1 =   99
 STRESS PERIOD=  1 TIMESTEP=234 LAYER=  1 ZONE=  2 ACTIVE CELLS=10320 NUMBER OF EQUATIONS=   10320
 
 SOLVING FOR HEAD 

 NO OUTPUT CONTROL FOR STRESS PERIOD    1   TIME STEP  235
 SOLVING FOR ZETA FOR LAYER     1 ZONE     2

    4993 UPPER PART EQS.      4990 LOWER PART EQS.    BAND WIDTH + 1 =   93
 STRESS PERIOD=  1 TIMESTEP=235 LAYER=  1 ZONE=  2 ACTIVE CELLS= 9983 NUMBER OF EQUATIONS=    9983
 
 SOLVING FOR HEAD 

 NO OUTPUT CONTROL FOR STRESS PERIOD    1   TIME STEP  236
 SOLVING FOR ZETA FOR LAYER     1 ZONE     2

    5155 UPPER PART EQS.      5155 LOWER PART EQS.    BAND WIDTH + 1 =   97
 STRESS PERIOD=  1 TIMESTEP=236 LAYER=  1 ZONE=  2 ACTIVE CELLS=10310 NUMBER OF EQUATIONS=   10310
 
 SOLVING FOR HEAD 

 NO OUTPUT CONTROL FOR STRESS PERIOD    1   TIME STEP  237
 SOLVING FOR ZETA FOR LAYER     1 ZONE     2

    4988 UPPER PART EQS.      4981 LOWER PART EQS.    BAND WIDTH + 1 =   93
 STRESS PERIOD=  1 TIMESTEP=237 LAYER=  1 ZONE=  2 ACTIVE CELLS= 9969 NUMBER OF EQUATIONS=    9969
 
 SOLVING FOR HEAD 

 NO OUTPUT CONTROL FOR STRESS PERIOD    1   TIME STEP  238
 SOLVING FOR ZETA FOR LAYER     1 ZONE     2

    5147 UPPER PART EQS.      5143 LOWER PART EQS.    BAND WIDTH + 1 =   97
 STRESS PERIOD=  1 TIMESTEP=238 LAYER=  1 ZONE=  2 ACTIVE CELLS=10290 NUMBER OF EQUATIONS=   10290
 
 SOLVING FOR HEAD 

 NO OUTPUT CONTROL FOR STRESS PERIOD    1   TIME STEP  239
 SOLVING FOR ZETA FOR LAYER     1 ZONE     2

    4974 UPPER PART EQS.      4979 LOWER PART EQS.    BAND WIDTH + 1 =   93
 STRESS PERIOD=  1 TIMESTEP=239 LAYER=  1 ZONE=  2 ACTIVE CELLS= 9953 NUMBER OF EQUATIONS=    9953
 
 SOLVING FOR HEAD 

 NO OUTPUT CONTROL FOR STRESS PERIOD    1   TIME STEP  240
 SOLVING FOR ZETA FOR LAYER     1 ZONE     2

    5141 UPPER PART EQS.      5134 LOWER PART EQS.    BAND WIDTH + 1 =   95
 STRESS PERIOD=  1 TIMESTEP=240 LAYER=  1 ZONE=  2 ACTIVE CELLS=10275 NUMBER OF EQUATIONS=   10275
 
 SOLVING FOR HEAD 

 NO OUTPUT CONTROL FOR STRESS PERIOD    1   TIME STEP  241
 SOLVING FOR ZETA FOR LAYER     1 ZONE     2

    4964 UPPER PART EQS.      4968 LOWER PART EQS.    BAND WIDTH + 1 =   94
 STRESS PERIOD=  1 TIMESTEP=241 LAYER=  1 ZONE=  2 ACTIVE CELLS= 9932 NUMBER OF EQUATIONS=    9932
 
 SOLVING FOR HEAD 

 NO OUTPUT CONTROL FOR STRESS PERIOD    1   TIME STEP  242
 SOLVING FOR ZETA FOR LAYER     1 ZONE     2

    5135 UPPER PART EQS.      5127 LOWER PART EQS.    BAND WIDTH + 1 =   95
 STRESS PERIOD=  1 TIMESTEP=242 LAYER=  1 ZONE=  2 ACTIVE CELLS=10262 NUMBER OF EQUATIONS=   10262
 
 SOLVING FOR HEAD 

 NO OUTPUT CONTROL FOR STRESS PERIOD    1   TIME STEP  243
 SOLVING FOR ZETA FOR LAYER     1 ZONE     2

    4958 UPPER PART EQS.      4965 LOWER PART EQS.    BAND WIDTH + 1 =   94
 STRESS PERIOD=  1 TIMESTEP=243 LAYER=  1 ZONE=  2 ACTIVE CELLS= 9923 NUMBER OF EQUATIONS=    9923
 
 SOLVING FOR HEAD 

 NO OUTPUT CONTROL FOR STRESS PERIOD    1   TIME STEP  244
 SOLVING FOR ZETA FOR LAYER     1 ZONE     2

    5126 UPPER PART EQS.      5116 LOWER PART EQS.    BAND WIDTH + 1 =   96
 STRESS PERIOD=  1 TIMESTEP=244 LAYER=  1 ZONE=  2 ACTIVE CELLS=10242 NUMBER OF EQUATIONS=   10242
 
 SOLVING FOR HEAD 

 NO OUTPUT CONTROL FOR STRESS PERIOD    1   TIME STEP  245
 SOLVING FOR ZETA FOR LAYER     1 ZONE     2

    4953 UPPER PART EQS.      4960 LOWER PART EQS.    BAND WIDTH + 1 =   93
 STRESS PERIOD=  1 TIMESTEP=245 LAYER=  1 ZONE=  2 ACTIVE CELLS= 9913 NUMBER OF EQUATIONS=    9913
 
 SOLVING FOR HEAD 

 NO OUTPUT CONTROL FOR STRESS PERIOD    1   TIME STEP  246
 SOLVING FOR ZETA FOR LAYER     1 ZONE     2

    5119 UPPER PART EQS.      5105 LOWER PART EQS.    BAND WIDTH + 1 =   95
 STRESS PERIOD=  1 TIMESTEP=246 LAYER=  1 ZONE=  2 ACTIVE CELLS=10224 NUMBER OF EQUATIONS=   10224
 
 SOLVING FOR HEAD 

 NO OUTPUT CONTROL FOR STRESS PERIOD    1   TIME STEP  247
 SOLVING FOR ZETA FOR LAYER     1 ZONE     2

    4948 UPPER PART EQS.      4956 LOWER PART EQS.    BAND WIDTH + 1 =   94
 STRESS PERIOD=  1 TIMESTEP=247 LAYER=  1 ZONE=  2 ACTIVE CELLS= 9904 NUMBER OF EQUATIONS=    9904
 
 SOLVING FOR HEAD 

 NO OUTPUT CONTROL FOR STRESS PERIOD    1   TIME STEP  248
 SOLVING FOR ZETA FOR LAYER     1 ZONE     2

    5109 UPPER PART EQS.      5093 LOWER PART EQS.    BAND WIDTH + 1 =   97
 STRESS PERIOD=  1 TIMESTEP=248 LAYER=  1 ZONE=  2 ACTIVE CELLS=10202 NUMBER OF EQUATIONS=   10202
 
 SOLVING FOR HEAD 

 NO OUTPUT CONTROL FOR STRESS PERIOD    1   TIME STEP  249
 SOLVING FOR ZETA FOR LAYER     1 ZONE     2

    4946 UPPER PART EQS.      4952 LOWER PART EQS.    BAND WIDTH + 1 =   93
 STRESS PERIOD=  1 TIMESTEP=249 LAYER=  1 ZONE=  2 ACTIVE CELLS= 9898 NUMBER OF EQUATIONS=    9898
 
 SOLVING FOR HEAD 

 NO OUTPUT CONTROL FOR STRESS PERIOD    1   TIME STEP  250
 SOLVING FOR ZETA FOR LAYER     1 ZONE     2

    5099 UPPER PART EQS.      5087 LOWER PART EQS.    BAND WIDTH + 1 =   96
 STRESS PERIOD=  1 TIMESTEP=250 LAYER=  1 ZONE=  2 ACTIVE CELLS=10186 NUMBER OF EQUATIONS=   10186
 
 SOLVING FOR HEAD 

 NO OUTPUT CONTROL FOR STRESS PERIOD    1   TIME STEP  251
 SOLVING FOR ZETA FOR LAYER     1 ZONE     2

    4941 UPPER PART EQS.      4948 LOWER PART EQS.    BAND WIDTH + 1 =   93
 STRESS PERIOD=  1 TIMESTEP=251 LAYER=  1 ZONE=  2 ACTIVE CELLS= 9889 NUMBER OF EQUATIONS=    9889
 
 SOLVING FOR HEAD 

 NO OUTPUT CONTROL FOR STRESS PERIOD    1   TIME STEP  252
 SOLVING FOR ZETA FOR LAYER     1 ZONE     2

    5093 UPPER PART EQS.      5075 LOWER PART EQS.    BAND WIDTH + 1 =   97
 STRESS PERIOD=  1 TIMESTEP=252 LAYER=  1 ZONE=  2 ACTIVE CELLS=10168 NUMBER OF EQUATIONS=   10168
 
 SOLVING FOR HEAD 

 NO OUTPUT CONTROL FOR STRESS PERIOD    1   TIME STEP  253
 SOLVING FOR ZETA FOR LAYER     1 ZONE     2

    4942 UPPER PART EQS.      4942 LOWER PART EQS.    BAND WIDTH + 1 =   93
 STRESS PERIOD=  1 TIMESTEP=253 LAYER=  1 ZONE=  2 ACTIVE CELLS= 9884 NUMBER OF EQUATIONS=    9884
 
 SOLVING FOR HEAD 

 NO OUTPUT CONTROL FOR STRESS PERIOD    1   TIME STEP  254
 SOLVING FOR ZETA FOR LAYER     1 ZONE     2

    5084 UPPER PART EQS.      5069 LOWER PART EQS.    BAND WIDTH + 1 =   98
 STRESS PERIOD=  1 TIMESTEP=254 LAYER=  1 ZONE=  2 ACTIVE CELLS=10153 NUMBER OF EQUATIONS=   10153
 
 SOLVING FOR HEAD 

 NO OUTPUT CONTROL FOR STRESS PERIOD    1   TIME STEP  255
 SOLVING FOR ZETA FOR LAYER     1 ZONE     2

    4939 UPPER PART EQS.      4936 LOWER PART EQS.    BAND WIDTH + 1 =   93
 STRESS PERIOD=  1 TIMESTEP=255 LAYER=  1 ZONE=  2 ACTIVE CELLS= 9875 NUMBER OF EQUATIONS=    9875
 
 SOLVING FOR HEAD 

 NO OUTPUT CONTROL FOR STRESS PERIOD    1   TIME STEP  256
 SOLVING FOR ZETA FOR LAYER     1 ZONE     2

    5074 UPPER PART EQS.      5061 LOWER PART EQS.    BAND WIDTH + 1 =   99
 STRESS PERIOD=  1 TIMESTEP=256 LAYER=  1 ZONE=  2 ACTIVE CELLS=10135 NUMBER OF EQUATIONS=   10135
 
 SOLVING FOR HEAD 

 NO OUTPUT CONTROL FOR STRESS PERIOD    1   TIME STEP  257
 SOLVING FOR ZETA FOR LAYER     1 ZONE     2

    4934 UPPER PART EQS.      4930 LOWER PART EQS.    BAND WIDTH + 1 =   93
 STRESS PERIOD=  1 TIMESTEP=257 LAYER=  1 ZONE=  2 ACTIVE CELLS= 9864 NUMBER OF EQUATIONS=    9864
 
 SOLVING FOR HEAD 

 NO OUTPUT CONTROL FOR STRESS PERIOD    1   TIME STEP  258
 SOLVING FOR ZETA FOR LAYER     1 ZONE     2

    5063 UPPER PART EQS.      5056 LOWER PART EQS.    BAND WIDTH + 1 =   96
 STRESS PERIOD=  1 TIMESTEP=258 LAYER=  1 ZONE=  2 ACTIVE CELLS=10119 NUMBER OF EQUATIONS=   10119
 
 SOLVING FOR HEAD 

 NO OUTPUT CONTROL FOR STRESS PERIOD    1   TIME STEP  259
 SOLVING FOR ZETA FOR LAYER     1 ZONE     2

    4925 UPPER PART EQS.      4919 LOWER PART EQS.    BAND WIDTH + 1 =   93
 STRESS PERIOD=  1 TIMESTEP=259 LAYER=  1 ZONE=  2 ACTIVE CELLS= 9844 NUMBER OF EQUATIONS=    9844
 
 SOLVING FOR HEAD 

 NO OUTPUT CONTROL FOR STRESS PERIOD    1   TIME STEP  260
 SOLVING FOR ZETA FOR LAYER     1 ZONE     2

    5057 UPPER PART EQS.      5053 LOWER PART EQS.    BAND WIDTH + 1 =   96
 STRESS PERIOD=  1 TIMESTEP=260 LAYER=  1 ZONE=  2 ACTIVE CELLS=10110 NUMBER OF EQUATIONS=   10110
 
 SOLVING FOR HEAD 

 NO OUTPUT CONTROL FOR STRESS PERIOD    1   TIME STEP  261
 SOLVING FOR ZETA FOR LAYER     1 ZONE     2

    4920 UPPER PART EQS.      4907 LOWER PART EQS.    BAND WIDTH + 1 =   93
 STRESS PERIOD=  1 TIMESTEP=261 LAYER=  1 ZONE=  2 ACTIVE CELLS= 9827 NUMBER OF EQUATIONS=    9827
 
 SOLVING FOR HEAD 

 NO OUTPUT CONTROL FOR STRESS PERIOD    1   TIME STEP  262
 SOLVING FOR ZETA FOR LAYER     1 ZONE     2

    5048 UPPER PART EQS.      5046 LOWER PART EQS.    BAND WIDTH + 1 =   97
 STRESS PERIOD=  1 TIMESTEP=262 LAYER=  1 ZONE=  2 ACTIVE CELLS=10094 NUMBER OF EQUATIONS=   10094
 
 SOLVING FOR HEAD 

 NO OUTPUT CONTROL FOR STRESS PERIOD    1   TIME STEP  263
 SOLVING FOR ZETA FOR LAYER     1 ZONE     2

    4907 UPPER PART EQS.      4901 LOWER PART EQS.    BAND WIDTH + 1 =   94
 STRESS PERIOD=  1 TIMESTEP=263 LAYER=  1 ZONE=  2 ACTIVE CELLS= 9808 NUMBER OF EQUATIONS=    9808
 
 SOLVING FOR HEAD 

 NO OUTPUT CONTROL FOR STRESS PERIOD    1   TIME STEP  264
 SOLVING FOR ZETA FOR LAYER     1 ZONE     2

    5042 UPPER PART EQS.      5042 LOWER PART EQS.    BAND WIDTH + 1 =   97
 STRESS PERIOD=  1 TIMESTEP=264 LAYER=  1 ZONE=  2 ACTIVE CELLS=10084 NUMBER OF EQUATIONS=   10084
 
 SOLVING FOR HEAD 

 NO OUTPUT CONTROL FOR STRESS PERIOD    1   TIME STEP  265
 SOLVING FOR ZETA FOR LAYER     1 ZONE     2

    4902 UPPER PART EQS.      4893 LOWER PART EQS.    BAND WIDTH + 1 =   93
 STRESS PERIOD=  1 TIMESTEP=265 LAYER=  1 ZONE=  2 ACTIVE CELLS= 9795 NUMBER OF EQUATIONS=    9795
 
 SOLVING FOR HEAD 

 NO OUTPUT CONTROL FOR STRESS PERIOD    1   TIME STEP  266
 SOLVING FOR ZETA FOR LAYER     1 ZONE     2

    5033 UPPER PART EQS.      5032 LOWER PART EQS.    BAND WIDTH + 1 =   97
 STRESS PERIOD=  1 TIMESTEP=266 LAYER=  1 ZONE=  2 ACTIVE CELLS=10065 NUMBER OF EQUATIONS=   10065
 
 SOLVING FOR HEAD 

 NO OUTPUT CONTROL FOR STRESS PERIOD    1   TIME STEP  267
 SOLVING FOR ZETA FOR LAYER     1 ZONE     2

    4897 UPPER PART EQS.      4887 LOWER PART EQS.    BAND WIDTH + 1 =   94
 STRESS PERIOD=  1 TIMESTEP=267 LAYER=  1 ZONE=  2 ACTIVE CELLS= 9784 NUMBER OF EQUATIONS=    9784
 
 SOLVING FOR HEAD 

 NO OUTPUT CONTROL FOR STRESS PERIOD    1   TIME STEP  268
 SOLVING FOR ZETA FOR LAYER     1 ZONE     2

    5025 UPPER PART EQS.      5025 LOWER PART EQS.    BAND WIDTH + 1 =   97
 STRESS PERIOD=  1 TIMESTEP=268 LAYER=  1 ZONE=  2 ACTIVE CELLS=10050 NUMBER OF EQUATIONS=   10050
 
 SOLVING FOR HEAD 

 NO OUTPUT CONTROL FOR STRESS PERIOD    1   TIME STEP  269
 SOLVING FOR ZETA FOR LAYER     1 ZONE     2

    4889 UPPER PART EQS.      4883 LOWER PART EQS.    BAND WIDTH + 1 =   94
 STRESS PERIOD=  1 TIMESTEP=269 LAYER=  1 ZONE=  2 ACTIVE CELLS= 9772 NUMBER OF EQUATIONS=    9772
 
 SOLVING FOR HEAD 

 NO OUTPUT CONTROL FOR STRESS PERIOD    1   TIME STEP  270
 SOLVING FOR ZETA FOR LAYER     1 ZONE     2

    5023 UPPER PART EQS.      5017 LOWER PART EQS.    BAND WIDTH + 1 =   97
 STRESS PERIOD=  1 TIMESTEP=270 LAYER=  1 ZONE=  2 ACTIVE CELLS=10040 NUMBER OF EQUATIONS=   10040
 
 SOLVING FOR HEAD 

 NO OUTPUT CONTROL FOR STRESS PERIOD    1   TIME STEP  271
 SOLVING FOR ZETA FOR LAYER     1 ZONE     2

    4883 UPPER PART EQS.      4879 LOWER PART EQS.    BAND WIDTH + 1 =   94
 STRESS PERIOD=  1 TIMESTEP=271 LAYER=  1 ZONE=  2 ACTIVE CELLS= 9762 NUMBER OF EQUATIONS=    9762
 
 SOLVING FOR HEAD 

 NO OUTPUT CONTROL FOR STRESS PERIOD    1   TIME STEP  272
 SOLVING FOR ZETA FOR LAYER     1 ZONE     2

    5015 UPPER PART EQS.      5012 LOWER PART EQS.    BAND WIDTH + 1 =   98
 STRESS PERIOD=  1 TIMESTEP=272 LAYER=  1 ZONE=  2 ACTIVE CELLS=10027 NUMBER OF EQUATIONS=   10027
 
 SOLVING FOR HEAD 

 NO OUTPUT CONTROL FOR STRESS PERIOD    1   TIME STEP  273
 SOLVING FOR ZETA FOR LAYER     1 ZONE     2

    4868 UPPER PART EQS.      4874 LOWER PART EQS.    BAND WIDTH + 1 =   94
 STRESS PERIOD=  1 TIMESTEP=273 LAYER=  1 ZONE=  2 ACTIVE CELLS= 9742 NUMBER OF EQUATIONS=    9742
 
 SOLVING FOR HEAD 

 NO OUTPUT CONTROL FOR STRESS PERIOD    1   TIME STEP  274
 SOLVING FOR ZETA FOR LAYER     1 ZONE     2

    5008 UPPER PART EQS.      5005 LOWER PART EQS.    BAND WIDTH + 1 =   97
 STRESS PERIOD=  1 TIMESTEP=274 LAYER=  1 ZONE=  2 ACTIVE CELLS=10013 NUMBER OF EQUATIONS=   10013
 
 SOLVING FOR HEAD 

 NO OUTPUT CONTROL FOR STRESS PERIOD    1   TIME STEP  275
 SOLVING FOR ZETA FOR LAYER     1 ZONE     2

    4867 UPPER PART EQS.      4868 LOWER PART EQS.    BAND WIDTH + 1 =   94
 STRESS PERIOD=  1 TIMESTEP=275 LAYER=  1 ZONE=  2 ACTIVE CELLS= 9735 NUMBER OF EQUATIONS=    9735
 
 SOLVING FOR HEAD 

 NO OUTPUT CONTROL FOR STRESS PERIOD    1   TIME STEP  276
 SOLVING FOR ZETA FOR LAYER     1 ZONE     2

    4996 UPPER PART EQS.      4989 LOWER PART EQS.    BAND WIDTH + 1 =   97
 STRESS PERIOD=  1 TIMESTEP=276 LAYER=  1 ZONE=  2 ACTIVE CELLS= 9985 NUMBER OF EQUATIONS=    9985
 
 SOLVING FOR HEAD 

 NO OUTPUT CONTROL FOR STRESS PERIOD    1   TIME STEP  277
 SOLVING FOR ZETA FOR LAYER     1 ZONE     2

    4858 UPPER PART EQS.      4865 LOWER PART EQS.    BAND WIDTH + 1 =   94
 STRESS PERIOD=  1 TIMESTEP=277 LAYER=  1 ZONE=  2 ACTIVE CELLS= 9723 NUMBER OF EQUATIONS=    9723
 
 SOLVING FOR HEAD 

 NO OUTPUT CONTROL FOR STRESS PERIOD    1   TIME STEP  278
 SOLVING FOR ZETA FOR LAYER     1 ZONE     2

    4994 UPPER PART EQS.      4980 LOWER PART EQS.    BAND WIDTH + 1 =   98
 STRESS PERIOD=  1 TIMESTEP=278 LAYER=  1 ZONE=  2 ACTIVE CELLS= 9974 NUMBER OF EQUATIONS=    9974
 
 SOLVING FOR HEAD 

 NO OUTPUT CONTROL FOR STRESS PERIOD    1   TIME STEP  279
 SOLVING FOR ZETA FOR LAYER     1 ZONE     2

    4848 UPPER PART EQS.      4861 LOWER PART EQS.    BAND WIDTH + 1 =   94
 STRESS PERIOD=  1 TIMESTEP=279 LAYER=  1 ZONE=  2 ACTIVE CELLS= 9709 NUMBER OF EQUATIONS=    9709
 
 SOLVING FOR HEAD 

 NO OUTPUT CONTROL FOR STRESS PERIOD    1   TIME STEP  280
 SOLVING FOR ZETA FOR LAYER     1 ZONE     2

    4982 UPPER PART EQS.      4970 LOWER PART EQS.    BAND WIDTH + 1 =   97
 STRESS PERIOD=  1 TIMESTEP=280 LAYER=  1 ZONE=  2 ACTIVE CELLS= 9952 NUMBER OF EQUATIONS=    9952
 
 SOLVING FOR HEAD 

 NO OUTPUT CONTROL FOR STRESS PERIOD    1   TIME STEP  281
 SOLVING FOR ZETA FOR LAYER     1 ZONE     2

    4840 UPPER PART EQS.      4854 LOWER PART EQS.    BAND WIDTH + 1 =   94
 STRESS PERIOD=  1 TIMESTEP=281 LAYER=  1 ZONE=  2 ACTIVE CELLS= 9694 NUMBER OF EQUATIONS=    9694
 
 SOLVING FOR HEAD 

 NO OUTPUT CONTROL FOR STRESS PERIOD    1   TIME STEP  282
 SOLVING FOR ZETA FOR LAYER     1 ZONE     2

    4976 UPPER PART EQS.      4961 LOWER PART EQS.    BAND WIDTH + 1 =   97
 STRESS PERIOD=  1 TIMESTEP=282 LAYER=  1 ZONE=  2 ACTIVE CELLS= 9937 NUMBER OF EQUATIONS=    9937
 
 SOLVING FOR HEAD 

 NO OUTPUT CONTROL FOR STRESS PERIOD    1   TIME STEP  283
 SOLVING FOR ZETA FOR LAYER     1 ZONE     2

    4833 UPPER PART EQS.      4849 LOWER PART EQS.    BAND WIDTH + 1 =   94
 STRESS PERIOD=  1 TIMESTEP=283 LAYER=  1 ZONE=  2 ACTIVE CELLS= 9682 NUMBER OF EQUATIONS=    9682
 
 SOLVING FOR HEAD 

 NO OUTPUT CONTROL FOR STRESS PERIOD    1   TIME STEP  284
 SOLVING FOR ZETA FOR LAYER     1 ZONE     2

    4970 UPPER PART EQS.      4944 LOWER PART EQS.    BAND WIDTH + 1 =  100
 STRESS PERIOD=  1 TIMESTEP=284 LAYER=  1 ZONE=  2 ACTIVE CELLS= 9914 NUMBER OF EQUATIONS=    9914
 
 SOLVING FOR HEAD 

 NO OUTPUT CONTROL FOR STRESS PERIOD    1   TIME STEP  285
 SOLVING FOR ZETA FOR LAYER     1 ZONE     2

    4833 UPPER PART EQS.      4847 LOWER PART EQS.    BAND WIDTH + 1 =   94
 STRESS PERIOD=  1 TIMESTEP=285 LAYER=  1 ZONE=  2 ACTIVE CELLS= 9680 NUMBER OF EQUATIONS=    9680
 
 SOLVING FOR HEAD 

 NO OUTPUT CONTROL FOR STRESS PERIOD    1   TIME STEP  286
 SOLVING FOR ZETA FOR LAYER     1 ZONE     2

    4964 UPPER PART EQS.      4938 LOWER PART EQS.    BAND WIDTH + 1 =   97
 STRESS PERIOD=  1 TIMESTEP=286 LAYER=  1 ZONE=  2 ACTIVE CELLS= 9902 NUMBER OF EQUATIONS=    9902
 
 SOLVING FOR HEAD 

 NO OUTPUT CONTROL FOR STRESS PERIOD    1   TIME STEP  287
 SOLVING FOR ZETA FOR LAYER     1 ZONE     2

    4821 UPPER PART EQS.      4842 LOWER PART EQS.    BAND WIDTH + 1 =   94
 STRESS PERIOD=  1 TIMESTEP=287 LAYER=  1 ZONE=  2 ACTIVE CELLS= 9663 NUMBER OF EQUATIONS=    9663
 
 SOLVING FOR HEAD 

 NO OUTPUT CONTROL FOR STRESS PERIOD    1   TIME STEP  288
 SOLVING FOR ZETA FOR LAYER     1 ZONE     2

    4953 UPPER PART EQS.      4935 LOWER PART EQS.    BAND WIDTH + 1 =   97
 STRESS PERIOD=  1 TIMESTEP=288 LAYER=  1 ZONE=  2 ACTIVE CELLS= 9888 NUMBER OF EQUATIONS=    9888
 
 SOLVING FOR HEAD 

 NO OUTPUT CONTROL FOR STRESS PERIOD    1   TIME STEP  289
 SOLVING FOR ZETA FOR LAYER     1 ZONE     2

    4815 UPPER PART EQS.      4832 LOWER PART EQS.    BAND WIDTH + 1 =   94
 STRESS PERIOD=  1 TIMESTEP=289 LAYER=  1 ZONE=  2 ACTIVE CELLS= 9647 NUMBER OF EQUATIONS=    9647
 
 SOLVING FOR HEAD 

 NO OUTPUT CONTROL FOR STRESS PERIOD    1   TIME STEP  290
 SOLVING FOR ZETA FOR LAYER     1 ZONE     2

    4942 UPPER PART EQS.      4927 LOWER PART EQS.    BAND WIDTH + 1 =   97
 STRESS PERIOD=  1 TIMESTEP=290 LAYER=  1 ZONE=  2 ACTIVE CELLS= 9869 NUMBER OF EQUATIONS=    9869
 
 SOLVING FOR HEAD 

 NO OUTPUT CONTROL FOR STRESS PERIOD    1   TIME STEP  291
 SOLVING FOR ZETA FOR LAYER     1 ZONE     2

    4808 UPPER PART EQS.      4823 LOWER PART EQS.    BAND WIDTH + 1 =   94
 STRESS PERIOD=  1 TIMESTEP=291 LAYER=  1 ZONE=  2 ACTIVE CELLS= 9631 NUMBER OF EQUATIONS=    9631
 
 SOLVING FOR HEAD 

 NO OUTPUT CONTROL FOR STRESS PERIOD    1   TIME STEP  292
 SOLVING FOR ZETA FOR LAYER     1 ZONE     2

    4938 UPPER PART EQS.      4917 LOWER PART EQS.    BAND WIDTH + 1 =   96
 STRESS PERIOD=  1 TIMESTEP=292 LAYER=  1 ZONE=  2 ACTIVE CELLS= 9855 NUMBER OF EQUATIONS=    9855
 
 SOLVING FOR HEAD 

 NO OUTPUT CONTROL FOR STRESS PERIOD    1   TIME STEP  293
 SOLVING FOR ZETA FOR LAYER     1 ZONE     2

    4800 UPPER PART EQS.      4812 LOWER PART EQS.    BAND WIDTH + 1 =   94
 STRESS PERIOD=  1 TIMESTEP=293 LAYER=  1 ZONE=  2 ACTIVE CELLS= 9612 NUMBER OF EQUATIONS=    9612
 
 SOLVING FOR HEAD 

 NO OUTPUT CONTROL FOR STRESS PERIOD    1   TIME STEP  294
 SOLVING FOR ZETA FOR LAYER     1 ZONE     2

    4930 UPPER PART EQS.      4913 LOWER PART EQS.    BAND WIDTH + 1 =   96
 STRESS PERIOD=  1 TIMESTEP=294 LAYER=  1 ZONE=  2 ACTIVE CELLS= 9843 NUMBER OF EQUATIONS=    9843
 
 SOLVING FOR HEAD 

 NO OUTPUT CONTROL FOR STRESS PERIOD    1   TIME STEP  295
 SOLVING FOR ZETA FOR LAYER     1 ZONE     2

    4794 UPPER PART EQS.      4802 LOWER PART EQS.    BAND WIDTH + 1 =   94
 STRESS PERIOD=  1 TIMESTEP=295 LAYER=  1 ZONE=  2 ACTIVE CELLS= 9596 NUMBER OF EQUATIONS=    9596
 
 SOLVING FOR HEAD 

 NO OUTPUT CONTROL FOR STRESS PERIOD    1   TIME STEP  296
 SOLVING FOR ZETA FOR LAYER     1 ZONE     2

    4927 UPPER PART EQS.      4908 LOWER PART EQS.    BAND WIDTH + 1 =   96
 STRESS PERIOD=  1 TIMESTEP=296 LAYER=  1 ZONE=  2 ACTIVE CELLS= 9835 NUMBER OF EQUATIONS=    9835
 
 SOLVING FOR HEAD 

 NO OUTPUT CONTROL FOR STRESS PERIOD    1   TIME STEP  297
 SOLVING FOR ZETA FOR LAYER     1 ZONE     2

    4785 UPPER PART EQS.      4789 LOWER PART EQS.    BAND WIDTH + 1 =   97
 STRESS PERIOD=  1 TIMESTEP=297 LAYER=  1 ZONE=  2 ACTIVE CELLS= 9574 NUMBER OF EQUATIONS=    9574
 
 SOLVING FOR HEAD 

 NO OUTPUT CONTROL FOR STRESS PERIOD    1   TIME STEP  298
 SOLVING FOR ZETA FOR LAYER     1 ZONE     2

    4914 UPPER PART EQS.      4900 LOWER PART EQS.    BAND WIDTH + 1 =   96
 STRESS PERIOD=  1 TIMESTEP=298 LAYER=  1 ZONE=  2 ACTIVE CELLS= 9814 NUMBER OF EQUATIONS=    9814
 
 SOLVING FOR HEAD 

 NO OUTPUT CONTROL FOR STRESS PERIOD    1   TIME STEP  299
 SOLVING FOR ZETA FOR LAYER     1 ZONE     2

    4782 UPPER PART EQS.      4780 LOWER PART EQS.    BAND WIDTH + 1 =   97
 STRESS PERIOD=  1 TIMESTEP=299 LAYER=  1 ZONE=  2 ACTIVE CELLS= 9562 NUMBER OF EQUATIONS=    9562
 
 SOLVING FOR HEAD 

 NO OUTPUT CONTROL FOR STRESS PERIOD    1   TIME STEP  300
 SOLVING FOR ZETA FOR LAYER     1 ZONE     2

    4902 UPPER PART EQS.      4890 LOWER PART EQS.    BAND WIDTH + 1 =   97
 STRESS PERIOD=  1 TIMESTEP=300 LAYER=  1 ZONE=  2 ACTIVE CELLS= 9792 NUMBER OF EQUATIONS=    9792
 
 SOLVING FOR HEAD 

 NO OUTPUT CONTROL FOR STRESS PERIOD    1   TIME STEP  301
 SOLVING FOR ZETA FOR LAYER     1 ZONE     2

    4770 UPPER PART EQS.      4773 LOWER PART EQS.    BAND WIDTH + 1 =   95
 STRESS PERIOD=  1 TIMESTEP=301 LAYER=  1 ZONE=  2 ACTIVE CELLS= 9543 NUMBER OF EQUATIONS=    9543
 
 SOLVING FOR HEAD 

 NO OUTPUT CONTROL FOR STRESS PERIOD    1   TIME STEP  302
 SOLVING FOR ZETA FOR LAYER     1 ZONE     2

    4889 UPPER PART EQS.      4880 LOWER PART EQS.    BAND WIDTH + 1 =   97
 STRESS PERIOD=  1 TIMESTEP=302 LAYER=  1 ZONE=  2 ACTIVE CELLS= 9769 NUMBER OF EQUATIONS=    9769
 
 SOLVING FOR HEAD 

 NO OUTPUT CONTROL FOR STRESS PERIOD    1   TIME STEP  303
 SOLVING FOR ZETA FOR LAYER     1 ZONE     2

    4763 UPPER PART EQS.      4764 LOWER PART EQS.    BAND WIDTH + 1 =   94
 STRESS PERIOD=  1 TIMESTEP=303 LAYER=  1 ZONE=  2 ACTIVE CELLS= 9527 NUMBER OF EQUATIONS=    9527
 
 SOLVING FOR HEAD 

 NO OUTPUT CONTROL FOR STRESS PERIOD    1   TIME STEP  304
 SOLVING FOR ZETA FOR LAYER     1 ZONE     2

    4879 UPPER PART EQS.      4868 LOWER PART EQS.    BAND WIDTH + 1 =   97
 STRESS PERIOD=  1 TIMESTEP=304 LAYER=  1 ZONE=  2 ACTIVE CELLS= 9747 NUMBER OF EQUATIONS=    9747
 
 SOLVING FOR HEAD 

 NO OUTPUT CONTROL FOR STRESS PERIOD    1   TIME STEP  305
 SOLVING FOR ZETA FOR LAYER     1 ZONE     2

    4753 UPPER PART EQS.      4750 LOWER PART EQS.    BAND WIDTH + 1 =   96
 STRESS PERIOD=  1 TIMESTEP=305 LAYER=  1 ZONE=  2 ACTIVE CELLS= 9503 NUMBER OF EQUATIONS=    9503
 
 SOLVING FOR HEAD 

 NO OUTPUT CONTROL FOR STRESS PERIOD    1   TIME STEP  306
 SOLVING FOR ZETA FOR LAYER     1 ZONE     2

    4867 UPPER PART EQS.      4854 LOWER PART EQS.    BAND WIDTH + 1 =   97
 STRESS PERIOD=  1 TIMESTEP=306 LAYER=  1 ZONE=  2 ACTIVE CELLS= 9721 NUMBER OF EQUATIONS=    9721
 
 SOLVING FOR HEAD 

 NO OUTPUT CONTROL FOR STRESS PERIOD    1   TIME STEP  307
 SOLVING FOR ZETA FOR LAYER     1 ZONE     2

    4748 UPPER PART EQS.      4743 LOWER PART EQS.    BAND WIDTH + 1 =   94
 STRESS PERIOD=  1 TIMESTEP=307 LAYER=  1 ZONE=  2 ACTIVE CELLS= 9491 NUMBER OF EQUATIONS=    9491
 
 SOLVING FOR HEAD 

 NO OUTPUT CONTROL FOR STRESS PERIOD    1   TIME STEP  308
 SOLVING FOR ZETA FOR LAYER     1 ZONE     2

    4850 UPPER PART EQS.      4842 LOWER PART EQS.    BAND WIDTH + 1 =   97
 STRESS PERIOD=  1 TIMESTEP=308 LAYER=  1 ZONE=  2 ACTIVE CELLS= 9692 NUMBER OF EQUATIONS=    9692
 
 SOLVING FOR HEAD 

 NO OUTPUT CONTROL FOR STRESS PERIOD    1   TIME STEP  309
 SOLVING FOR ZETA FOR LAYER     1 ZONE     2

    4738 UPPER PART EQS.      4736 LOWER PART EQS.    BAND WIDTH + 1 =   94
 STRESS PERIOD=  1 TIMESTEP=309 LAYER=  1 ZONE=  2 ACTIVE CELLS= 9474 NUMBER OF EQUATIONS=    9474
 
 SOLVING FOR HEAD 

 NO OUTPUT CONTROL FOR STRESS PERIOD    1   TIME STEP  310
 SOLVING FOR ZETA FOR LAYER     1 ZONE     2

    4847 UPPER PART EQS.      4835 LOWER PART EQS.    BAND WIDTH + 1 =   97
 STRESS PERIOD=  1 TIMESTEP=310 LAYER=  1 ZONE=  2 ACTIVE CELLS= 9682 NUMBER OF EQUATIONS=    9682
 
 SOLVING FOR HEAD 

 NO OUTPUT CONTROL FOR STRESS PERIOD    1   TIME STEP  311
 SOLVING FOR ZETA FOR LAYER     1 ZONE     2

    4732 UPPER PART EQS.      4722 LOWER PART EQS.    BAND WIDTH + 1 =   95
 STRESS PERIOD=  1 TIMESTEP=311 LAYER=  1 ZONE=  2 ACTIVE CELLS= 9454 NUMBER OF EQUATIONS=    9454
 
 SOLVING FOR HEAD 

 NO OUTPUT CONTROL FOR STRESS PERIOD    1   TIME STEP  312
 SOLVING FOR ZETA FOR LAYER     1 ZONE     2

    4830 UPPER PART EQS.      4829 LOWER PART EQS.    BAND WIDTH + 1 =   98
 STRESS PERIOD=  1 TIMESTEP=312 LAYER=  1 ZONE=  2 ACTIVE CELLS= 9659 NUMBER OF EQUATIONS=    9659
 
 SOLVING FOR HEAD 

 NO OUTPUT CONTROL FOR STRESS PERIOD    1   TIME STEP  313
 SOLVING FOR ZETA FOR LAYER     1 ZONE     2

    4726 UPPER PART EQS.      4722 LOWER PART EQS.    BAND WIDTH + 1 =   95
 STRESS PERIOD=  1 TIMESTEP=313 LAYER=  1 ZONE=  2 ACTIVE CELLS= 9448 NUMBER OF EQUATIONS=    9448
 
 SOLVING FOR HEAD 

 NO OUTPUT CONTROL FOR STRESS PERIOD    1   TIME STEP  314
 SOLVING FOR ZETA FOR LAYER     1 ZONE     2

    4824 UPPER PART EQS.      4822 LOWER PART EQS.    BAND WIDTH + 1 =   98
 STRESS PERIOD=  1 TIMESTEP=314 LAYER=  1 ZONE=  2 ACTIVE CELLS= 9646 NUMBER OF EQUATIONS=    9646
 
 SOLVING FOR HEAD 

 NO OUTPUT CONTROL FOR STRESS PERIOD    1   TIME STEP  315
 SOLVING FOR ZETA FOR LAYER     1 ZONE     2

    4721 UPPER PART EQS.      4716 LOWER PART EQS.    BAND WIDTH + 1 =   95
 STRESS PERIOD=  1 TIMESTEP=315 LAYER=  1 ZONE=  2 ACTIVE CELLS= 9437 NUMBER OF EQUATIONS=    9437
 
 SOLVING FOR HEAD 

 NO OUTPUT CONTROL FOR STRESS PERIOD    1   TIME STEP  316
 SOLVING FOR ZETA FOR LAYER     1 ZONE     2

    4818 UPPER PART EQS.      4811 LOWER PART EQS.    BAND WIDTH + 1 =   97
 STRESS PERIOD=  1 TIMESTEP=316 LAYER=  1 ZONE=  2 ACTIVE CELLS= 9629 NUMBER OF EQUATIONS=    9629
 
 SOLVING FOR HEAD 

 NO OUTPUT CONTROL FOR STRESS PERIOD    1   TIME STEP  317
 SOLVING FOR ZETA FOR LAYER     1 ZONE     2

    4714 UPPER PART EQS.      4716 LOWER PART EQS.    BAND WIDTH + 1 =   95
 STRESS PERIOD=  1 TIMESTEP=317 LAYER=  1 ZONE=  2 ACTIVE CELLS= 9430 NUMBER OF EQUATIONS=    9430
 
 SOLVING FOR HEAD 

 NO OUTPUT CONTROL FOR STRESS PERIOD    1   TIME STEP  318
 SOLVING FOR ZETA FOR LAYER     1 ZONE     2

    4811 UPPER PART EQS.      4801 LOWER PART EQS.    BAND WIDTH + 1 =   98
 STRESS PERIOD=  1 TIMESTEP=318 LAYER=  1 ZONE=  2 ACTIVE CELLS= 9612 NUMBER OF EQUATIONS=    9612
 
 SOLVING FOR HEAD 

 NO OUTPUT CONTROL FOR STRESS PERIOD    1   TIME STEP  319
 SOLVING FOR ZETA FOR LAYER     1 ZONE     2

    4706 UPPER PART EQS.      4710 LOWER PART EQS.    BAND WIDTH + 1 =   95
 STRESS PERIOD=  1 TIMESTEP=319 LAYER=  1 ZONE=  2 ACTIVE CELLS= 9416 NUMBER OF EQUATIONS=    9416
 
 SOLVING FOR HEAD 

 NO OUTPUT CONTROL FOR STRESS PERIOD    1   TIME STEP  320
 SOLVING FOR ZETA FOR LAYER     1 ZONE     2

    4799 UPPER PART EQS.      4795 LOWER PART EQS.    BAND WIDTH + 1 =   98
 STRESS PERIOD=  1 TIMESTEP=320 LAYER=  1 ZONE=  2 ACTIVE CELLS= 9594 NUMBER OF EQUATIONS=    9594
 
 SOLVING FOR HEAD 

 NO OUTPUT CONTROL FOR STRESS PERIOD    1   TIME STEP  321
 SOLVING FOR ZETA FOR LAYER     1 ZONE     2

    4693 UPPER PART EQS.      4699 LOWER PART EQS.    BAND WIDTH + 1 =   95
 STRESS PERIOD=  1 TIMESTEP=321 LAYER=  1 ZONE=  2 ACTIVE CELLS= 9392 NUMBER OF EQUATIONS=    9392
 
 SOLVING FOR HEAD 

 NO OUTPUT CONTROL FOR STRESS PERIOD    1   TIME STEP  322
 SOLVING FOR ZETA FOR LAYER     1 ZONE     2

    4793 UPPER PART EQS.      4789 LOWER PART EQS.    BAND WIDTH + 1 =   99
 STRESS PERIOD=  1 TIMESTEP=322 LAYER=  1 ZONE=  2 ACTIVE CELLS= 9582 NUMBER OF EQUATIONS=    9582
 
 SOLVING FOR HEAD 

 NO OUTPUT CONTROL FOR STRESS PERIOD    1   TIME STEP  323
 SOLVING FOR ZETA FOR LAYER     1 ZONE     2

    4687 UPPER PART EQS.      4684 LOWER PART EQS.    BAND WIDTH + 1 =   95
 STRESS PERIOD=  1 TIMESTEP=323 LAYER=  1 ZONE=  2 ACTIVE CELLS= 9371 NUMBER OF EQUATIONS=    9371
 
 SOLVING FOR HEAD 

 NO OUTPUT CONTROL FOR STRESS PERIOD    1   TIME STEP  324
 SOLVING FOR ZETA FOR LAYER     1 ZONE     2

    4788 UPPER PART EQS.      4780 LOWER PART EQS.    BAND WIDTH + 1 =   98
 STRESS PERIOD=  1 TIMESTEP=324 LAYER=  1 ZONE=  2 ACTIVE CELLS= 9568 NUMBER OF EQUATIONS=    9568
 
 SOLVING FOR HEAD 

 NO OUTPUT CONTROL FOR STRESS PERIOD    1   TIME STEP  325
 SOLVING FOR ZETA FOR LAYER     1 ZONE     2

    4678 UPPER PART EQS.      4670 LOWER PART EQS.    BAND WIDTH + 1 =   95
 STRESS PERIOD=  1 TIMESTEP=325 LAYER=  1 ZONE=  2 ACTIVE CELLS= 9348 NUMBER OF EQUATIONS=    9348
 
 SOLVING FOR HEAD 

 NO OUTPUT CONTROL FOR STRESS PERIOD    1   TIME STEP  326
 SOLVING FOR ZETA FOR LAYER     1 ZONE     2

    4777 UPPER PART EQS.      4771 LOWER PART EQS.    BAND WIDTH + 1 =   98
 STRESS PERIOD=  1 TIMESTEP=326 LAYER=  1 ZONE=  2 ACTIVE CELLS= 9548 NUMBER OF EQUATIONS=    9548
 
 SOLVING FOR HEAD 

 NO OUTPUT CONTROL FOR STRESS PERIOD    1   TIME STEP  327
 SOLVING FOR ZETA FOR LAYER     1 ZONE     2

    4674 UPPER PART EQS.      4668 LOWER PART EQS.    BAND WIDTH + 1 =   95
 STRESS PERIOD=  1 TIMESTEP=327 LAYER=  1 ZONE=  2 ACTIVE CELLS= 9342 NUMBER OF EQUATIONS=    9342
 
 SOLVING FOR HEAD 

 NO OUTPUT CONTROL FOR STRESS PERIOD    1   TIME STEP  328
 SOLVING FOR ZETA FOR LAYER     1 ZONE     2

    4768 UPPER PART EQS.      4761 LOWER PART EQS.    BAND WIDTH + 1 =   98
 STRESS PERIOD=  1 TIMESTEP=328 LAYER=  1 ZONE=  2 ACTIVE CELLS= 9529 NUMBER OF EQUATIONS=    9529
 
 SOLVING FOR HEAD 

 NO OUTPUT CONTROL FOR STRESS PERIOD    1   TIME STEP  329
 SOLVING FOR ZETA FOR LAYER     1 ZONE     2

    4670 UPPER PART EQS.      4664 LOWER PART EQS.    BAND WIDTH + 1 =   95
 STRESS PERIOD=  1 TIMESTEP=329 LAYER=  1 ZONE=  2 ACTIVE CELLS= 9334 NUMBER OF EQUATIONS=    9334
 
 SOLVING FOR HEAD 

 NO OUTPUT CONTROL FOR STRESS PERIOD    1   TIME STEP  330
 SOLVING FOR ZETA FOR LAYER     1 ZONE     2

    4759 UPPER PART EQS.      4755 LOWER PART EQS.    BAND WIDTH + 1 =   98
 STRESS PERIOD=  1 TIMESTEP=330 LAYER=  1 ZONE=  2 ACTIVE CELLS= 9514 NUMBER OF EQUATIONS=    9514
 
 SOLVING FOR HEAD 

 NO OUTPUT CONTROL FOR STRESS PERIOD    1   TIME STEP  331
 SOLVING FOR ZETA FOR LAYER     1 ZONE     2

    4664 UPPER PART EQS.      4657 LOWER PART EQS.    BAND WIDTH + 1 =   95
 STRESS PERIOD=  1 TIMESTEP=331 LAYER=  1 ZONE=  2 ACTIVE CELLS= 9321 NUMBER OF EQUATIONS=    9321
 
 SOLVING FOR HEAD 

 NO OUTPUT CONTROL FOR STRESS PERIOD    1   TIME STEP  332
 SOLVING FOR ZETA FOR LAYER     1 ZONE     2

    4753 UPPER PART EQS.      4745 LOWER PART EQS.    BAND WIDTH + 1 =   98
 STRESS PERIOD=  1 TIMESTEP=332 LAYER=  1 ZONE=  2 ACTIVE CELLS= 9498 NUMBER OF EQUATIONS=    9498
 
 SOLVING FOR HEAD 

 NO OUTPUT CONTROL FOR STRESS PERIOD    1   TIME STEP  333
 SOLVING FOR ZETA FOR LAYER     1 ZONE     2

    4661 UPPER PART EQS.      4651 LOWER PART EQS.    BAND WIDTH + 1 =   95
 STRESS PERIOD=  1 TIMESTEP=333 LAYER=  1 ZONE=  2 ACTIVE CELLS= 9312 NUMBER OF EQUATIONS=    9312
 
 SOLVING FOR HEAD 

 NO OUTPUT CONTROL FOR STRESS PERIOD    1   TIME STEP  334
 SOLVING FOR ZETA FOR LAYER     1 ZONE     2

    4745 UPPER PART EQS.      4737 LOWER PART EQS.    BAND WIDTH + 1 =   98
 STRESS PERIOD=  1 TIMESTEP=334 LAYER=  1 ZONE=  2 ACTIVE CELLS= 9482 NUMBER OF EQUATIONS=    9482
 
 SOLVING FOR HEAD 

 NO OUTPUT CONTROL FOR STRESS PERIOD    1   TIME STEP  335
 SOLVING FOR ZETA FOR LAYER     1 ZONE     2

    4652 UPPER PART EQS.      4641 LOWER PART EQS.    BAND WIDTH + 1 =   95
 STRESS PERIOD=  1 TIMESTEP=335 LAYER=  1 ZONE=  2 ACTIVE CELLS= 9293 NUMBER OF EQUATIONS=    9293
 
 SOLVING FOR HEAD 

 NO OUTPUT CONTROL FOR STRESS PERIOD    1   TIME STEP  336
 SOLVING FOR ZETA FOR LAYER     1 ZONE     2

    4738 UPPER PART EQS.      4728 LOWER PART EQS.    BAND WIDTH + 1 =   98
 STRESS PERIOD=  1 TIMESTEP=336 LAYER=  1 ZONE=  2 ACTIVE CELLS= 9466 NUMBER OF EQUATIONS=    9466
 
 SOLVING FOR HEAD 

 NO OUTPUT CONTROL FOR STRESS PERIOD    1   TIME STEP  337
 SOLVING FOR ZETA FOR LAYER     1 ZONE     2

    4648 UPPER PART EQS.      4632 LOWER PART EQS.    BAND WIDTH + 1 =   96
 STRESS PERIOD=  1 TIMESTEP=337 LAYER=  1 ZONE=  2 ACTIVE CELLS= 9280 NUMBER OF EQUATIONS=    9280
 
 SOLVING FOR HEAD 

 NO OUTPUT CONTROL FOR STRESS PERIOD    1   TIME STEP  338
 SOLVING FOR ZETA FOR LAYER     1 ZONE     2

    4730 UPPER PART EQS.      4730 LOWER PART EQS.    BAND WIDTH + 1 =   98
 STRESS PERIOD=  1 TIMESTEP=338 LAYER=  1 ZONE=  2 ACTIVE CELLS= 9460 NUMBER OF EQUATIONS=    9460
 
 SOLVING FOR HEAD 

 NO OUTPUT CONTROL FOR STRESS PERIOD    1   TIME STEP  339
 SOLVING FOR ZETA FOR LAYER     1 ZONE     2

    4638 UPPER PART EQS.      4624 LOWER PART EQS.    BAND WIDTH + 1 =   96
 STRESS PERIOD=  1 TIMESTEP=339 LAYER=  1 ZONE=  2 ACTIVE CELLS= 9262 NUMBER OF EQUATIONS=    9262
 
 SOLVING FOR HEAD 

 NO OUTPUT CONTROL FOR STRESS PERIOD    1   TIME STEP  340
 SOLVING FOR ZETA FOR LAYER     1 ZONE     2

    4722 UPPER PART EQS.      4718 LOWER PART EQS.    BAND WIDTH + 1 =   98
 STRESS PERIOD=  1 TIMESTEP=340 LAYER=  1 ZONE=  2 ACTIVE CELLS= 9440 NUMBER OF EQUATIONS=    9440
 
 SOLVING FOR HEAD 

 NO OUTPUT CONTROL FOR STRESS PERIOD    1   TIME STEP  341
 SOLVING FOR ZETA FOR LAYER     1 ZONE     2

    4629 UPPER PART EQS.      4619 LOWER PART EQS.    BAND WIDTH + 1 =   96
 STRESS PERIOD=  1 TIMESTEP=341 LAYER=  1 ZONE=  2 ACTIVE CELLS= 9248 NUMBER OF EQUATIONS=    9248
 
 SOLVING FOR HEAD 

 NO OUTPUT CONTROL FOR STRESS PERIOD    1   TIME STEP  342
 SOLVING FOR ZETA FOR LAYER     1 ZONE     2

    4713 UPPER PART EQS.      4712 LOWER PART EQS.    BAND WIDTH + 1 =   99
 STRESS PERIOD=  1 TIMESTEP=342 LAYER=  1 ZONE=  2 ACTIVE CELLS= 9425 NUMBER OF EQUATIONS=    9425
 
 SOLVING FOR HEAD 

 NO OUTPUT CONTROL FOR STRESS PERIOD    1   TIME STEP  343
 SOLVING FOR ZETA FOR LAYER     1 ZONE     2

    4617 UPPER PART EQS.      4616 LOWER PART EQS.    BAND WIDTH + 1 =   96
 STRESS PERIOD=  1 TIMESTEP=343 LAYER=  1 ZONE=  2 ACTIVE CELLS= 9233 NUMBER OF EQUATIONS=    9233
 
 SOLVING FOR HEAD 

 NO OUTPUT CONTROL FOR STRESS PERIOD    1   TIME STEP  344
 SOLVING FOR ZETA FOR LAYER     1 ZONE     2

    4708 UPPER PART EQS.      4699 LOWER PART EQS.    BAND WIDTH + 1 =   99
 STRESS PERIOD=  1 TIMESTEP=344 LAYER=  1 ZONE=  2 ACTIVE CELLS= 9407 NUMBER OF EQUATIONS=    9407
 
 SOLVING FOR HEAD 

 NO OUTPUT CONTROL FOR STRESS PERIOD    1   TIME STEP  345
 SOLVING FOR ZETA FOR LAYER     1 ZONE     2

    4608 UPPER PART EQS.      4605 LOWER PART EQS.    BAND WIDTH + 1 =   96
 STRESS PERIOD=  1 TIMESTEP=345 LAYER=  1 ZONE=  2 ACTIVE CELLS= 9213 NUMBER OF EQUATIONS=    9213
 
 SOLVING FOR HEAD 

 NO OUTPUT CONTROL FOR STRESS PERIOD    1   TIME STEP  346
 SOLVING FOR ZETA FOR LAYER     1 ZONE     2

    4703 UPPER PART EQS.      4692 LOWER PART EQS.    BAND WIDTH + 1 =   99
 STRESS PERIOD=  1 TIMESTEP=346 LAYER=  1 ZONE=  2 ACTIVE CELLS= 9395 NUMBER OF EQUATIONS=    9395
 
 SOLVING FOR HEAD 

 NO OUTPUT CONTROL FOR STRESS PERIOD    1   TIME STEP  347
 SOLVING FOR ZETA FOR LAYER     1 ZONE     2

    4598 UPPER PART EQS.      4598 LOWER PART EQS.    BAND WIDTH + 1 =   96
 STRESS PERIOD=  1 TIMESTEP=347 LAYER=  1 ZONE=  2 ACTIVE CELLS= 9196 NUMBER OF EQUATIONS=    9196
 
 SOLVING FOR HEAD 

 NO OUTPUT CONTROL FOR STRESS PERIOD    1   TIME STEP  348
 SOLVING FOR ZETA FOR LAYER     1 ZONE     2

    4691 UPPER PART EQS.      4690 LOWER PART EQS.    BAND WIDTH + 1 =   99
 STRESS PERIOD=  1 TIMESTEP=348 LAYER=  1 ZONE=  2 ACTIVE CELLS= 9381 NUMBER OF EQUATIONS=    9381
 
 SOLVING FOR HEAD 

 NO OUTPUT CONTROL FOR STRESS PERIOD    1   TIME STEP  349
 SOLVING FOR ZETA FOR LAYER     1 ZONE     2

    4594 UPPER PART EQS.      4591 LOWER PART EQS.    BAND WIDTH + 1 =   97
 STRESS PERIOD=  1 TIMESTEP=349 LAYER=  1 ZONE=  2 ACTIVE CELLS= 9185 NUMBER OF EQUATIONS=    9185
 
 SOLVING FOR HEAD 

 NO OUTPUT CONTROL FOR STRESS PERIOD    1   TIME STEP  350
 SOLVING FOR ZETA FOR LAYER     1 ZONE     2

    4688 UPPER PART EQS.      4682 LOWER PART EQS.    BAND WIDTH + 1 =   99
 STRESS PERIOD=  1 TIMESTEP=350 LAYER=  1 ZONE=  2 ACTIVE CELLS= 9370 NUMBER OF EQUATIONS=    9370
 
 SOLVING FOR HEAD 

 NO OUTPUT CONTROL FOR STRESS PERIOD    1   TIME STEP  351
 SOLVING FOR ZETA FOR LAYER     1 ZONE     2

    4588 UPPER PART EQS.      4584 LOWER PART EQS.    BAND WIDTH + 1 =   97
 STRESS PERIOD=  1 TIMESTEP=351 LAYER=  1 ZONE=  2 ACTIVE CELLS= 9172 NUMBER OF EQUATIONS=    9172
 
 SOLVING FOR HEAD 

 NO OUTPUT CONTROL FOR STRESS PERIOD    1   TIME STEP  352
 SOLVING FOR ZETA FOR LAYER     1 ZONE     2

    4681 UPPER PART EQS.      4673 LOWER PART EQS.    BAND WIDTH + 1 =   99
 STRESS PERIOD=  1 TIMESTEP=352 LAYER=  1 ZONE=  2 ACTIVE CELLS= 9354 NUMBER OF EQUATIONS=    9354
 
 SOLVING FOR HEAD 

 NO OUTPUT CONTROL FOR STRESS PERIOD    1   TIME STEP  353
 SOLVING FOR ZETA FOR LAYER     1 ZONE     2

    4582 UPPER PART EQS.      4576 LOWER PART EQS.    BAND WIDTH + 1 =   97
 STRESS PERIOD=  1 TIMESTEP=353 LAYER=  1 ZONE=  2 ACTIVE CELLS= 9158 NUMBER OF EQUATIONS=    9158
 
 SOLVING FOR HEAD 

 NO OUTPUT CONTROL FOR STRESS PERIOD    1   TIME STEP  354
 SOLVING FOR ZETA FOR LAYER     1 ZONE     2

    4676 UPPER PART EQS.      4666 LOWER PART EQS.    BAND WIDTH + 1 =   99
 STRESS PERIOD=  1 TIMESTEP=354 LAYER=  1 ZONE=  2 ACTIVE CELLS= 9342 NUMBER OF EQUATIONS=    9342
 
 SOLVING FOR HEAD 

 NO OUTPUT CONTROL FOR STRESS PERIOD    1   TIME STEP  355
 SOLVING FOR ZETA FOR LAYER     1 ZONE     2

    4572 UPPER PART EQS.      4567 LOWER PART EQS.    BAND WIDTH + 1 =   97
 STRESS PERIOD=  1 TIMESTEP=355 LAYER=  1 ZONE=  2 ACTIVE CELLS= 9139 NUMBER OF EQUATIONS=    9139
 
 SOLVING FOR HEAD 

 NO OUTPUT CONTROL FOR STRESS PERIOD    1   TIME STEP  356
 SOLVING FOR ZETA FOR LAYER     1 ZONE     2

    4669 UPPER PART EQS.      4662 LOWER PART EQS.    BAND WIDTH + 1 =   99
 STRESS PERIOD=  1 TIMESTEP=356 LAYER=  1 ZONE=  2 ACTIVE CELLS= 9331 NUMBER OF EQUATIONS=    9331
 
 SOLVING FOR HEAD 

 NO OUTPUT CONTROL FOR STRESS PERIOD    1   TIME STEP  357
 SOLVING FOR ZETA FOR LAYER     1 ZONE     2

    4562 UPPER PART EQS.      4561 LOWER PART EQS.    BAND WIDTH + 1 =   97
 STRESS PERIOD=  1 TIMESTEP=357 LAYER=  1 ZONE=  2 ACTIVE CELLS= 9123 NUMBER OF EQUATIONS=    9123
 
 SOLVING FOR HEAD 

 NO OUTPUT CONTROL FOR STRESS PERIOD    1   TIME STEP  358
 SOLVING FOR ZETA FOR LAYER     1 ZONE     2

    4657 UPPER PART EQS.      4657 LOWER PART EQS.    BAND WIDTH + 1 =  100
 STRESS PERIOD=  1 TIMESTEP=358 LAYER=  1 ZONE=  2 ACTIVE CELLS= 9314 NUMBER OF EQUATIONS=    9314
 
 SOLVING FOR HEAD 

 NO OUTPUT CONTROL FOR STRESS PERIOD    1   TIME STEP  359
 SOLVING FOR ZETA FOR LAYER     1 ZONE     2

    4556 UPPER PART EQS.      4560 LOWER PART EQS.    BAND WIDTH + 1 =   97
 STRESS PERIOD=  1 TIMESTEP=359 LAYER=  1 ZONE=  2 ACTIVE CELLS= 9116 NUMBER OF EQUATIONS=    9116
 
 SOLVING FOR HEAD 

 NO OUTPUT CONTROL FOR STRESS PERIOD    1   TIME STEP  360
 SOLVING FOR ZETA FOR LAYER     1 ZONE     2

    4647 UPPER PART EQS.      4648 LOWER PART EQS.    BAND WIDTH + 1 =  100
 STRESS PERIOD=  1 TIMESTEP=360 LAYER=  1 ZONE=  2 ACTIVE CELLS= 9295 NUMBER OF EQUATIONS=    9295
 
 SOLVING FOR HEAD 

 NO OUTPUT CONTROL FOR STRESS PERIOD    1   TIME STEP  361
 SOLVING FOR ZETA FOR LAYER     1 ZONE     2

    4547 UPPER PART EQS.      4556 LOWER PART EQS.    BAND WIDTH + 1 =   97
 STRESS PERIOD=  1 TIMESTEP=361 LAYER=  1 ZONE=  2 ACTIVE CELLS= 9103 NUMBER OF EQUATIONS=    9103
 
 SOLVING FOR HEAD 

 NO OUTPUT CONTROL FOR STRESS PERIOD    1   TIME STEP  362
 SOLVING FOR ZETA FOR LAYER     1 ZONE     2

    4641 UPPER PART EQS.      4636 LOWER PART EQS.    BAND WIDTH + 1 =   99
 STRESS PERIOD=  1 TIMESTEP=362 LAYER=  1 ZONE=  2 ACTIVE CELLS= 9277 NUMBER OF EQUATIONS=    9277
 
 SOLVING FOR HEAD 

 NO OUTPUT CONTROL FOR STRESS PERIOD    1   TIME STEP  363
 SOLVING FOR ZETA FOR LAYER     1 ZONE     2

    4543 UPPER PART EQS.      4551 LOWER PART EQS.    BAND WIDTH + 1 =   95
 STRESS PERIOD=  1 TIMESTEP=363 LAYER=  1 ZONE=  2 ACTIVE CELLS= 9094 NUMBER OF EQUATIONS=    9094
 
 SOLVING FOR HEAD 

 NO OUTPUT CONTROL FOR STRESS PERIOD    1   TIME STEP  364
 SOLVING FOR ZETA FOR LAYER     1 ZONE     2

    4632 UPPER PART EQS.      4625 LOWER PART EQS.    BAND WIDTH + 1 =   99
 STRESS PERIOD=  1 TIMESTEP=364 LAYER=  1 ZONE=  2 ACTIVE CELLS= 9257 NUMBER OF EQUATIONS=    9257
 
 SOLVING FOR HEAD 

 NO OUTPUT CONTROL FOR STRESS PERIOD    1   TIME STEP  365
 SOLVING FOR ZETA FOR LAYER     1 ZONE     2

    4539 UPPER PART EQS.      4539 LOWER PART EQS.    BAND WIDTH + 1 =   96
 STRESS PERIOD=  1 TIMESTEP=365 LAYER=  1 ZONE=  2 ACTIVE CELLS= 9078 NUMBER OF EQUATIONS=    9078
 
 SOLVING FOR HEAD 

 NO OUTPUT CONTROL FOR STRESS PERIOD    1   TIME STEP  366
 SOLVING FOR ZETA FOR LAYER     1 ZONE     2

    4620 UPPER PART EQS.      4620 LOWER PART EQS.    BAND WIDTH + 1 =  100
 STRESS PERIOD=  1 TIMESTEP=366 LAYER=  1 ZONE=  2 ACTIVE CELLS= 9240 NUMBER OF EQUATIONS=    9240
 
 SOLVING FOR HEAD 

 NO OUTPUT CONTROL FOR STRESS PERIOD    1   TIME STEP  367
 SOLVING FOR ZETA FOR LAYER     1 ZONE     2

    4533 UPPER PART EQS.      4531 LOWER PART EQS.    BAND WIDTH + 1 =   96
 STRESS PERIOD=  1 TIMESTEP=367 LAYER=  1 ZONE=  2 ACTIVE CELLS= 9064 NUMBER OF EQUATIONS=    9064
 
 SOLVING FOR HEAD 

 NO OUTPUT CONTROL FOR STRESS PERIOD    1   TIME STEP  368
 SOLVING FOR ZETA FOR LAYER     1 ZONE     2

    4620 UPPER PART EQS.      4619 LOWER PART EQS.    BAND WIDTH + 1 =  100
 STRESS PERIOD=  1 TIMESTEP=368 LAYER=  1 ZONE=  2 ACTIVE CELLS= 9239 NUMBER OF EQUATIONS=    9239
 
 SOLVING FOR HEAD 

 NO OUTPUT CONTROL FOR STRESS PERIOD    1   TIME STEP  369
 SOLVING FOR ZETA FOR LAYER     1 ZONE     2

    4526 UPPER PART EQS.      4519 LOWER PART EQS.    BAND WIDTH + 1 =   96
 STRESS PERIOD=  1 TIMESTEP=369 LAYER=  1 ZONE=  2 ACTIVE CELLS= 9045 NUMBER OF EQUATIONS=    9045
 
 SOLVING FOR HEAD 

 NO OUTPUT CONTROL FOR STRESS PERIOD    1   TIME STEP  370
 SOLVING FOR ZETA FOR LAYER     1 ZONE     2

    4615 UPPER PART EQS.      4612 LOWER PART EQS.    BAND WIDTH + 1 =   99
 STRESS PERIOD=  1 TIMESTEP=370 LAYER=  1 ZONE=  2 ACTIVE CELLS= 9227 NUMBER OF EQUATIONS=    9227
 
 SOLVING FOR HEAD 

 NO OUTPUT CONTROL FOR STRESS PERIOD    1   TIME STEP  371
 SOLVING FOR ZETA FOR LAYER     1 ZONE     2

    4517 UPPER PART EQS.      4509 LOWER PART EQS.    BAND WIDTH + 1 =   96
 STRESS PERIOD=  1 TIMESTEP=371 LAYER=  1 ZONE=  2 ACTIVE CELLS= 9026 NUMBER OF EQUATIONS=    9026
 
 SOLVING FOR HEAD 

 NO OUTPUT CONTROL FOR STRESS PERIOD    1   TIME STEP  372
 SOLVING FOR ZETA FOR LAYER     1 ZONE     2

    4609 UPPER PART EQS.      4608 LOWER PART EQS.    BAND WIDTH + 1 =   99
 STRESS PERIOD=  1 TIMESTEP=372 LAYER=  1 ZONE=  2 ACTIVE CELLS= 9217 NUMBER OF EQUATIONS=    9217
 
 SOLVING FOR HEAD 

 NO OUTPUT CONTROL FOR STRESS PERIOD    1   TIME STEP  373
 SOLVING FOR ZETA FOR LAYER     1 ZONE     2

    4513 UPPER PART EQS.      4504 LOWER PART EQS.    BAND WIDTH + 1 =   96
 STRESS PERIOD=  1 TIMESTEP=373 LAYER=  1 ZONE=  2 ACTIVE CELLS= 9017 NUMBER OF EQUATIONS=    9017
 
 SOLVING FOR HEAD 

 NO OUTPUT CONTROL FOR STRESS PERIOD    1   TIME STEP  374
 SOLVING FOR ZETA FOR LAYER     1 ZONE     2

    4601 UPPER PART EQS.      4607 LOWER PART EQS.    BAND WIDTH + 1 =   99
 STRESS PERIOD=  1 TIMESTEP=374 LAYER=  1 ZONE=  2 ACTIVE CELLS= 9208 NUMBER OF EQUATIONS=    9208
 
 SOLVING FOR HEAD 

 NO OUTPUT CONTROL FOR STRESS PERIOD    1   TIME STEP  375
 SOLVING FOR ZETA FOR LAYER     1 ZONE     2

    4504 UPPER PART EQS.      4502 LOWER PART EQS.    BAND WIDTH + 1 =   96
 STRESS PERIOD=  1 TIMESTEP=375 LAYER=  1 ZONE=  2 ACTIVE CELLS= 9006 NUMBER OF EQUATIONS=    9006
 
 SOLVING FOR HEAD 

 NO OUTPUT CONTROL FOR STRESS PERIOD    1   TIME STEP  376
 SOLVING FOR ZETA FOR LAYER     1 ZONE     2

    4593 UPPER PART EQS.      4598 LOWER PART EQS.    BAND WIDTH + 1 =   99
 STRESS PERIOD=  1 TIMESTEP=376 LAYER=  1 ZONE=  2 ACTIVE CELLS= 9191 NUMBER OF EQUATIONS=    9191
 
 SOLVING FOR HEAD 

 NO OUTPUT CONTROL FOR STRESS PERIOD    1   TIME STEP  377
 SOLVING FOR ZETA FOR LAYER     1 ZONE     2

    4498 UPPER PART EQS.      4493 LOWER PART EQS.    BAND WIDTH + 1 =   96
 STRESS PERIOD=  1 TIMESTEP=377 LAYER=  1 ZONE=  2 ACTIVE CELLS= 8991 NUMBER OF EQUATIONS=    8991
 
 SOLVING FOR HEAD 

 NO OUTPUT CONTROL FOR STRESS PERIOD    1   TIME STEP  378
 SOLVING FOR ZETA FOR LAYER     1 ZONE     2

    4590 UPPER PART EQS.      4592 LOWER PART EQS.    BAND WIDTH + 1 =   99
 STRESS PERIOD=  1 TIMESTEP=378 LAYER=  1 ZONE=  2 ACTIVE CELLS= 9182 NUMBER OF EQUATIONS=    9182
 
 SOLVING FOR HEAD 

 NO OUTPUT CONTROL FOR STRESS PERIOD    1   TIME STEP  379
 SOLVING FOR ZETA FOR LAYER     1 ZONE     2

    4493 UPPER PART EQS.      4485 LOWER PART EQS.    BAND WIDTH + 1 =   96
 STRESS PERIOD=  1 TIMESTEP=379 LAYER=  1 ZONE=  2 ACTIVE CELLS= 8978 NUMBER OF EQUATIONS=    8978
 
 SOLVING FOR HEAD 

 NO OUTPUT CONTROL FOR STRESS PERIOD    1   TIME STEP  380
 SOLVING FOR ZETA FOR LAYER     1 ZONE     2

    4583 UPPER PART EQS.      4582 LOWER PART EQS.    BAND WIDTH + 1 =   99
 STRESS PERIOD=  1 TIMESTEP=380 LAYER=  1 ZONE=  2 ACTIVE CELLS= 9165 NUMBER OF EQUATIONS=    9165
 
 SOLVING FOR HEAD 

 NO OUTPUT CONTROL FOR STRESS PERIOD    1   TIME STEP  381
 SOLVING FOR ZETA FOR LAYER     1 ZONE     2

    4477 UPPER PART EQS.      4476 LOWER PART EQS.    BAND WIDTH + 1 =   96
 STRESS PERIOD=  1 TIMESTEP=381 LAYER=  1 ZONE=  2 ACTIVE CELLS= 8953 NUMBER OF EQUATIONS=    8953
 
 SOLVING FOR HEAD 

 NO OUTPUT CONTROL FOR STRESS PERIOD    1   TIME STEP  382
 SOLVING FOR ZETA FOR LAYER     1 ZONE     2

    4573 UPPER PART EQS.      4582 LOWER PART EQS.    BAND WIDTH + 1 =   99
 STRESS PERIOD=  1 TIMESTEP=382 LAYER=  1 ZONE=  2 ACTIVE CELLS= 9155 NUMBER OF EQUATIONS=    9155
 
 SOLVING FOR HEAD 

 NO OUTPUT CONTROL FOR STRESS PERIOD    1   TIME STEP  383
 SOLVING FOR ZETA FOR LAYER     1 ZONE     2

    4472 UPPER PART EQS.      4468 LOWER PART EQS.    BAND WIDTH + 1 =   96
 STRESS PERIOD=  1 TIMESTEP=383 LAYER=  1 ZONE=  2 ACTIVE CELLS= 8940 NUMBER OF EQUATIONS=    8940
 
 SOLVING FOR HEAD 

 NO OUTPUT CONTROL FOR STRESS PERIOD    1   TIME STEP  384
 SOLVING FOR ZETA FOR LAYER     1 ZONE     2

    4566 UPPER PART EQS.      4570 LOWER PART EQS.    BAND WIDTH + 1 =   99
 STRESS PERIOD=  1 TIMESTEP=384 LAYER=  1 ZONE=  2 ACTIVE CELLS= 9136 NUMBER OF EQUATIONS=    9136
 
 SOLVING FOR HEAD 

 NO OUTPUT CONTROL FOR STRESS PERIOD    1   TIME STEP  385
 SOLVING FOR ZETA FOR LAYER     1 ZONE     2

    4465 UPPER PART EQS.      4457 LOWER PART EQS.    BAND WIDTH + 1 =   95
 STRESS PERIOD=  1 TIMESTEP=385 LAYER=  1 ZONE=  2 ACTIVE CELLS= 8922 NUMBER OF EQUATIONS=    8922
 
 SOLVING FOR HEAD 

 NO OUTPUT CONTROL FOR STRESS PERIOD    1   TIME STEP  386
 SOLVING FOR ZETA FOR LAYER     1 ZONE     2

    4561 UPPER PART EQS.      4563 LOWER PART EQS.    BAND WIDTH + 1 =  100
 STRESS PERIOD=  1 TIMESTEP=386 LAYER=  1 ZONE=  2 ACTIVE CELLS= 9124 NUMBER OF EQUATIONS=    9124
 
 SOLVING FOR HEAD 

 NO OUTPUT CONTROL FOR STRESS PERIOD    1   TIME STEP  387
 SOLVING FOR ZETA FOR LAYER     1 ZONE     2

    4459 UPPER PART EQS.      4453 LOWER PART EQS.    BAND WIDTH + 1 =   95
 STRESS PERIOD=  1 TIMESTEP=387 LAYER=  1 ZONE=  2 ACTIVE CELLS= 8912 NUMBER OF EQUATIONS=    8912
 
 SOLVING FOR HEAD 

 NO OUTPUT CONTROL FOR STRESS PERIOD    1   TIME STEP  388
 SOLVING FOR ZETA FOR LAYER     1 ZONE     2

    4556 UPPER PART EQS.      4557 LOWER PART EQS.    BAND WIDTH + 1 =  101
 STRESS PERIOD=  1 TIMESTEP=388 LAYER=  1 ZONE=  2 ACTIVE CELLS= 9113 NUMBER OF EQUATIONS=    9113
 
 SOLVING FOR HEAD 

 NO OUTPUT CONTROL FOR STRESS PERIOD    1   TIME STEP  389
 SOLVING FOR ZETA FOR LAYER     1 ZONE     2

    4451 UPPER PART EQS.      4441 LOWER PART EQS.    BAND WIDTH + 1 =   95
 STRESS PERIOD=  1 TIMESTEP=389 LAYER=  1 ZONE=  2 ACTIVE CELLS= 8892 NUMBER OF EQUATIONS=    8892
 
 SOLVING FOR HEAD 

 NO OUTPUT CONTROL FOR STRESS PERIOD    1   TIME STEP  390
 SOLVING FOR ZETA FOR LAYER     1 ZONE     2

    4552 UPPER PART EQS.      4546 LOWER PART EQS.    BAND WIDTH + 1 =  100
 STRESS PERIOD=  1 TIMESTEP=390 LAYER=  1 ZONE=  2 ACTIVE CELLS= 9098 NUMBER OF EQUATIONS=    9098
 
 SOLVING FOR HEAD 

 NO OUTPUT CONTROL FOR STRESS PERIOD    1   TIME STEP  391
 SOLVING FOR ZETA FOR LAYER     1 ZONE     2

    4440 UPPER PART EQS.      4435 LOWER PART EQS.    BAND WIDTH + 1 =   95
 STRESS PERIOD=  1 TIMESTEP=391 LAYER=  1 ZONE=  2 ACTIVE CELLS= 8875 NUMBER OF EQUATIONS=    8875
 
 SOLVING FOR HEAD 

 NO OUTPUT CONTROL FOR STRESS PERIOD    1   TIME STEP  392
 SOLVING FOR ZETA FOR LAYER     1 ZONE     2

    4543 UPPER PART EQS.      4537 LOWER PART EQS.    BAND WIDTH + 1 =  100
 STRESS PERIOD=  1 TIMESTEP=392 LAYER=  1 ZONE=  2 ACTIVE CELLS= 9080 NUMBER OF EQUATIONS=    9080
 
 SOLVING FOR HEAD 

 NO OUTPUT CONTROL FOR STRESS PERIOD    1   TIME STEP  393
 SOLVING FOR ZETA FOR LAYER     1 ZONE     2

    4438 UPPER PART EQS.      4427 LOWER PART EQS.    BAND WIDTH + 1 =   96
 STRESS PERIOD=  1 TIMESTEP=393 LAYER=  1 ZONE=  2 ACTIVE CELLS= 8865 NUMBER OF EQUATIONS=    8865
 
 SOLVING FOR HEAD 

 NO OUTPUT CONTROL FOR STRESS PERIOD    1   TIME STEP  394
 SOLVING FOR ZETA FOR LAYER     1 ZONE     2

    4529 UPPER PART EQS.      4530 LOWER PART EQS.    BAND WIDTH + 1 =  100
 STRESS PERIOD=  1 TIMESTEP=394 LAYER=  1 ZONE=  2 ACTIVE CELLS= 9059 NUMBER OF EQUATIONS=    9059
 
 SOLVING FOR HEAD 

 NO OUTPUT CONTROL FOR STRESS PERIOD    1   TIME STEP  395
 SOLVING FOR ZETA FOR LAYER     1 ZONE     2

    4431 UPPER PART EQS.      4424 LOWER PART EQS.    BAND WIDTH + 1 =   95
 STRESS PERIOD=  1 TIMESTEP=395 LAYER=  1 ZONE=  2 ACTIVE CELLS= 8855 NUMBER OF EQUATIONS=    8855
 
 SOLVING FOR HEAD 

 NO OUTPUT CONTROL FOR STRESS PERIOD    1   TIME STEP  396
 SOLVING FOR ZETA FOR LAYER     1 ZONE     2

    4529 UPPER PART EQS.      4526 LOWER PART EQS.    BAND WIDTH + 1 =  100
 STRESS PERIOD=  1 TIMESTEP=396 LAYER=  1 ZONE=  2 ACTIVE CELLS= 9055 NUMBER OF EQUATIONS=    9055
 
 SOLVING FOR HEAD 

 NO OUTPUT CONTROL FOR STRESS PERIOD    1   TIME STEP  397
 SOLVING FOR ZETA FOR LAYER     1 ZONE     2

    4427 UPPER PART EQS.      4420 LOWER PART EQS.    BAND WIDTH + 1 =   95
 STRESS PERIOD=  1 TIMESTEP=397 LAYER=  1 ZONE=  2 ACTIVE CELLS= 8847 NUMBER OF EQUATIONS=    8847
 
 SOLVING FOR HEAD 

 NO OUTPUT CONTROL FOR STRESS PERIOD    1   TIME STEP  398
 SOLVING FOR ZETA FOR LAYER     1 ZONE     2

    4520 UPPER PART EQS.      4516 LOWER PART EQS.    BAND WIDTH + 1 =  100
 STRESS PERIOD=  1 TIMESTEP=398 LAYER=  1 ZONE=  2 ACTIVE CELLS= 9036 NUMBER OF EQUATIONS=    9036
 
 SOLVING FOR HEAD 

 NO OUTPUT CONTROL FOR STRESS PERIOD    1   TIME STEP  399
 SOLVING FOR ZETA FOR LAYER     1 ZONE     2

    4418 UPPER PART EQS.      4422 LOWER PART EQS.    BAND WIDTH + 1 =   95
 STRESS PERIOD=  1 TIMESTEP=399 LAYER=  1 ZONE=  2 ACTIVE CELLS= 8840 NUMBER OF EQUATIONS=    8840
 
 SOLVING FOR HEAD 

 OUTPUT CONTROL FOR STRESS PERIOD    1   TIME STEP  400
    PRINT BUDGET
    SAVE HEAD FOR ALL LAYERS
 SOLVING FOR ZETA FOR LAYER     1 ZONE     2

    4519 UPPER PART EQS.      4509 LOWER PART EQS.    BAND WIDTH + 1 =   98
 STRESS PERIOD=  1 TIMESTEP=400 LAYER=  1 ZONE=  2 ACTIVE CELLS= 9028 NUMBER OF EQUATIONS=    9028
 UBUDSV SAVING "      ZETASRF  1" ON UNIT 55 AT TIME STEP400, STRESS PERIOD    1


                      VOLUMETRIC SWI ZONE BUDGET FOR ENTIRE MODEL
                     AT END OF TIME STEP  400 IN STRESS PERIOD   1
                                      ZONE     1
  -----------------------------------------------------------------------------------

        CUMULATIVE VOLUMES      L**3       RATES FOR THIS TIME STEP      L**3/T
        ------------------                 ------------------------

              IN:                                      IN:
              ---                                      ---
             BOUNDARIES = 17763557376.0000            BOUNDARIES =      607926.9375
          CONSTANT HEAD =           0.0000         CONSTANT HEAD =           0.0000
            ZONE CHANGE =  3939069440.0000           ZONE CHANGE =       21004.5586
       ZONE CHG TIP/TOE =    28348656.0000      ZONE CHG TIP/TOE =         527.4466
            ZONE MIXING =           0.0000           ZONE MIXING =           0.0000

               TOTAL IN = 21730975744.0000              TOTAL IN =      629458.9375

             OUT:                                     OUT:
             ----                                     ----
             BOUNDARIES = 12770760704.0000            BOUNDARIES =      442257.9375
          CONSTANT HEAD =           0.0000         CONSTANT HEAD =           0.0000
            ZONE CHANGE =  9253978112.0000           ZONE CHANGE =      198848.6250
       ZONE CHG TIP/TOE =    19575700.0000      ZONE CHG TIP/TOE =         377.6773
            ZONE MIXING =           0.0000           ZONE MIXING =           0.0000

              TOTAL OUT = 22044313600.0000             TOTAL OUT =      641484.2500

               IN - OUT =  -313337856.0000              IN - OUT =      -12025.3125

    PERCENT DISCREPANCY =          -1.43     PERCENT DISCREPANCY =          -1.89



                      VOLUMETRIC SWI ZONE BUDGET FOR ENTIRE MODEL
                     AT END OF TIME STEP  400 IN STRESS PERIOD   1
                                      ZONE     2
  -----------------------------------------------------------------------------------

        CUMULATIVE VOLUMES      L**3       RATES FOR THIS TIME STEP      L**3/T
        ------------------                 ------------------------

              IN:                                      IN:
              ---                                      ---
             BOUNDARIES =    82462368.0000            BOUNDARIES =        2452.4319
          CONSTANT HEAD =           0.0000         CONSTANT HEAD =           0.0000
            ZONE CHANGE =  9253978112.0000           ZONE CHANGE =      198848.6250
       ZONE CHG TIP/TOE =   368105184.0000      ZONE CHG TIP/TOE =       12549.0527
            ZONE MIXING =           0.0000           ZONE MIXING =           0.0000

               TOTAL IN =  9704546304.0000              TOTAL IN =      213850.1094

             OUT:                                     OUT:
             ----                                     ----
             BOUNDARIES =  5075327488.0000            BOUNDARIES =      168121.4062
          CONSTANT HEAD =           0.0000         CONSTANT HEAD =           0.0000
            ZONE CHANGE =  4287597312.0000           ZONE CHANGE =       33175.9336
       ZONE CHG TIP/TOE =    28348656.0000      ZONE CHG TIP/TOE =         527.4466
            ZONE MIXING =           0.0000           ZONE MIXING =           0.0000

              TOTAL OUT =  9391272960.0000             TOTAL OUT =      201824.7969

               IN - OUT =   313273344.0000              IN - OUT =       12025.3125

    PERCENT DISCREPANCY =           3.28     PERCENT DISCREPANCY =           5.79


 HEAD WILL BE SAVED ON UNIT   51 AT END OF TIME STEP  400, STRESS PERIOD    1
1
  VOLUMETRIC BUDGET FOR ENTIRE MODEL AT END OF TIME STEP  400, STRESS PERIOD   1
  ------------------------------------------------------------------------------

     CUMULATIVE VOLUMES      L**3       RATES FOR THIS TIME STEP      L**3/T
     ------------------                 ------------------------

           IN:                                      IN:
           ---                                      ---
             STORAGE =           0.0000               STORAGE =           0.0000
       CONSTANT HEAD =           0.0000         CONSTANT HEAD =           0.0000
          SWIADDTOCH =           0.0000            SWIADDTOCH =           0.0000
     HEAD DEP BOUNDS =           0.0000       HEAD DEP BOUNDS =           0.0000
            RECHARGE = 19711105024.0000              RECHARGE =      674575.3125

            TOTAL IN = 19711105024.0000              TOTAL IN =      674575.3125

          OUT:                                     OUT:
          ----                                     ----
             STORAGE =           0.0000               STORAGE =           0.0000
       CONSTANT HEAD =           0.0000         CONSTANT HEAD =           0.0000
          SWIADDTOCH =           0.0000            SWIADDTOCH =           0.0000
     HEAD DEP BOUNDS = 19625046016.0000       HEAD DEP BOUNDS =      671630.5625
            RECHARGE =    86045808.0000              RECHARGE =        2944.7622

           TOTAL OUT = 19711092736.0000             TOTAL OUT =      674575.3125

            IN - OUT =       12288.0000              IN - OUT =           0.0000

 PERCENT DISCREPANCY =           0.00     PERCENT DISCREPANCY =           0.00






         TIME SUMMARY AT END OF TIME STEP  400 IN STRESS PERIOD    1
                    SECONDS     MINUTES      HOURS       DAYS        YEARS
                    -----------------------------------------------------------
   TIME STEP LENGTH 6.31152E+06 1.05192E+05  1753.2      73.050     0.20000    
 STRESS PERIOD TIME 2.52462E+09 4.20770E+07 7.01283E+05  29220.      80.000    
         TOTAL TIME 2.52462E+09 4.20770E+07 7.01283E+05  29220.      80.000    
1
 
 SOLVING FOR HEAD 

 NO OUTPUT CONTROL FOR STRESS PERIOD    1   TIME STEP  401
 SOLVING FOR ZETA FOR LAYER     1 ZONE     2

    4419 UPPER PART EQS.      4416 LOWER PART EQS.    BAND WIDTH + 1 =   95
 STRESS PERIOD=  1 TIMESTEP=401 LAYER=  1 ZONE=  2 ACTIVE CELLS= 8835 NUMBER OF EQUATIONS=    8835
 
 SOLVING FOR HEAD 

 NO OUTPUT CONTROL FOR STRESS PERIOD    1   TIME STEP  402
 SOLVING FOR ZETA FOR LAYER     1 ZONE     2

    4513 UPPER PART EQS.      4514 LOWER PART EQS.    BAND WIDTH + 1 =   98
 STRESS PERIOD=  1 TIMESTEP=402 LAYER=  1 ZONE=  2 ACTIVE CELLS= 9027 NUMBER OF EQUATIONS=    9027
 
 SOLVING FOR HEAD 

 NO OUTPUT CONTROL FOR STRESS PERIOD    1   TIME STEP  403
 SOLVING FOR ZETA FOR LAYER     1 ZONE     2

    4418 UPPER PART EQS.      4417 LOWER PART EQS.    BAND WIDTH + 1 =   95
 STRESS PERIOD=  1 TIMESTEP=403 LAYER=  1 ZONE=  2 ACTIVE CELLS= 8835 NUMBER OF EQUATIONS=    8835
 
 SOLVING FOR HEAD 

 NO OUTPUT CONTROL FOR STRESS PERIOD    1   TIME STEP  404
 SOLVING FOR ZETA FOR LAYER     1 ZONE     2

    4509 UPPER PART EQS.      4510 LOWER PART EQS.    BAND WIDTH + 1 =   98
 STRESS PERIOD=  1 TIMESTEP=404 LAYER=  1 ZONE=  2 ACTIVE CELLS= 9019 NUMBER OF EQUATIONS=    9019
 
 SOLVING FOR HEAD 

 NO OUTPUT CONTROL FOR STRESS PERIOD    1   TIME STEP  405
 SOLVING FOR ZETA FOR LAYER     1 ZONE     2

    4412 UPPER PART EQS.      4410 LOWER PART EQS.    BAND WIDTH + 1 =   95
 STRESS PERIOD=  1 TIMESTEP=405 LAYER=  1 ZONE=  2 ACTIVE CELLS= 8822 NUMBER OF EQUATIONS=    8822
 
 SOLVING FOR HEAD 

 NO OUTPUT CONTROL FOR STRESS PERIOD    1   TIME STEP  406
 SOLVING FOR ZETA FOR LAYER     1 ZONE     2

    4506 UPPER PART EQS.      4508 LOWER PART EQS.    BAND WIDTH + 1 =   98
 STRESS PERIOD=  1 TIMESTEP=406 LAYER=  1 ZONE=  2 ACTIVE CELLS= 9014 NUMBER OF EQUATIONS=    9014
 
 SOLVING FOR HEAD 

 NO OUTPUT CONTROL FOR STRESS PERIOD    1   TIME STEP  407
 SOLVING FOR ZETA FOR LAYER     1 ZONE     2

    4410 UPPER PART EQS.      4408 LOWER PART EQS.    BAND WIDTH + 1 =   95
 STRESS PERIOD=  1 TIMESTEP=407 LAYER=  1 ZONE=  2 ACTIVE CELLS= 8818 NUMBER OF EQUATIONS=    8818
 
 SOLVING FOR HEAD 

 NO OUTPUT CONTROL FOR STRESS PERIOD    1   TIME STEP  408
 SOLVING FOR ZETA FOR LAYER     1 ZONE     2

    4503 UPPER PART EQS.      4510 LOWER PART EQS.    BAND WIDTH + 1 =   98
 STRESS PERIOD=  1 TIMESTEP=408 LAYER=  1 ZONE=  2 ACTIVE CELLS= 9013 NUMBER OF EQUATIONS=    9013
 
 SOLVING FOR HEAD 

 NO OUTPUT CONTROL FOR STRESS PERIOD    1   TIME STEP  409
 SOLVING FOR ZETA FOR LAYER     1 ZONE     2

    4410 UPPER PART EQS.      4404 LOWER PART EQS.    BAND WIDTH + 1 =   95
 STRESS PERIOD=  1 TIMESTEP=409 LAYER=  1 ZONE=  2 ACTIVE CELLS= 8814 NUMBER OF EQUATIONS=    8814
 
 SOLVING FOR HEAD 

 NO OUTPUT CONTROL FOR STRESS PERIOD    1   TIME STEP  410
 SOLVING FOR ZETA FOR LAYER     1 ZONE     2

    4501 UPPER PART EQS.      4504 LOWER PART EQS.    BAND WIDTH + 1 =   99
 STRESS PERIOD=  1 TIMESTEP=410 LAYER=  1 ZONE=  2 ACTIVE CELLS= 9005 NUMBER OF EQUATIONS=    9005
 
 SOLVING FOR HEAD 

 NO OUTPUT CONTROL FOR STRESS PERIOD    1   TIME STEP  411
 SOLVING FOR ZETA FOR LAYER     1 ZONE     2

    4408 UPPER PART EQS.      4403 LOWER PART EQS.    BAND WIDTH + 1 =   97
 STRESS PERIOD=  1 TIMESTEP=411 LAYER=  1 ZONE=  2 ACTIVE CELLS= 8811 NUMBER OF EQUATIONS=    8811
 
 SOLVING FOR HEAD 

 NO OUTPUT CONTROL FOR STRESS PERIOD    1   TIME STEP  412
 SOLVING FOR ZETA FOR LAYER     1 ZONE     2

    4493 UPPER PART EQS.      4502 LOWER PART EQS.    BAND WIDTH + 1 =  101
 STRESS PERIOD=  1 TIMESTEP=412 LAYER=  1 ZONE=  2 ACTIVE CELLS= 8995 NUMBER OF EQUATIONS=    8995
 
 SOLVING FOR HEAD 

 NO OUTPUT CONTROL FOR STRESS PERIOD    1   TIME STEP  413
 SOLVING FOR ZETA FOR LAYER     1 ZONE     2

    4407 UPPER PART EQS.      4402 LOWER PART EQS.    BAND WIDTH + 1 =   96
 STRESS PERIOD=  1 TIMESTEP=413 LAYER=  1 ZONE=  2 ACTIVE CELLS= 8809 NUMBER OF EQUATIONS=    8809
 
 SOLVING FOR HEAD 

 NO OUTPUT CONTROL FOR STRESS PERIOD    1   TIME STEP  414
 SOLVING FOR ZETA FOR LAYER     1 ZONE     2

    4493 UPPER PART EQS.      4499 LOWER PART EQS.    BAND WIDTH + 1 =  101
 STRESS PERIOD=  1 TIMESTEP=414 LAYER=  1 ZONE=  2 ACTIVE CELLS= 8992 NUMBER OF EQUATIONS=    8992
 
 SOLVING FOR HEAD 

 NO OUTPUT CONTROL FOR STRESS PERIOD    1   TIME STEP  415
 SOLVING FOR ZETA FOR LAYER     1 ZONE     2

    4405 UPPER PART EQS.      4396 LOWER PART EQS.    BAND WIDTH + 1 =   94
 STRESS PERIOD=  1 TIMESTEP=415 LAYER=  1 ZONE=  2 ACTIVE CELLS= 8801 NUMBER OF EQUATIONS=    8801
 
 SOLVING FOR HEAD 

 NO OUTPUT CONTROL FOR STRESS PERIOD    1   TIME STEP  416
 SOLVING FOR ZETA FOR LAYER     1 ZONE     2

    4492 UPPER PART EQS.      4494 LOWER PART EQS.    BAND WIDTH + 1 =   99
 STRESS PERIOD=  1 TIMESTEP=416 LAYER=  1 ZONE=  2 ACTIVE CELLS= 8986 NUMBER OF EQUATIONS=    8986
 
 SOLVING FOR HEAD 

 NO OUTPUT CONTROL FOR STRESS PERIOD    1   TIME STEP  417
 SOLVING FOR ZETA FOR LAYER     1 ZONE     2

    4407 UPPER PART EQS.      4395 LOWER PART EQS.    BAND WIDTH + 1 =   94
 STRESS PERIOD=  1 TIMESTEP=417 LAYER=  1 ZONE=  2 ACTIVE CELLS= 8802 NUMBER OF EQUATIONS=    8802
 
 SOLVING FOR HEAD 

 NO OUTPUT CONTROL FOR STRESS PERIOD    1   TIME STEP  418
 SOLVING FOR ZETA FOR LAYER     1 ZONE     2

    4493 UPPER PART EQS.      4490 LOWER PART EQS.    BAND WIDTH + 1 =   99
 STRESS PERIOD=  1 TIMESTEP=418 LAYER=  1 ZONE=  2 ACTIVE CELLS= 8983 NUMBER OF EQUATIONS=    8983
 
 SOLVING FOR HEAD 

 NO OUTPUT CONTROL FOR STRESS PERIOD    1   TIME STEP  419
 SOLVING FOR ZETA FOR LAYER     1 ZONE     2

    4403 UPPER PART EQS.      4395 LOWER PART EQS.    BAND WIDTH + 1 =   94
 STRESS PERIOD=  1 TIMESTEP=419 LAYER=  1 ZONE=  2 ACTIVE CELLS= 8798 NUMBER OF EQUATIONS=    8798
 
 SOLVING FOR HEAD 

 NO OUTPUT CONTROL FOR STRESS PERIOD    1   TIME STEP  420
 SOLVING FOR ZETA FOR LAYER     1 ZONE     2

    4488 UPPER PART EQS.      4486 LOWER PART EQS.    BAND WIDTH + 1 =  100
 STRESS PERIOD=  1 TIMESTEP=420 LAYER=  1 ZONE=  2 ACTIVE CELLS= 8974 NUMBER OF EQUATIONS=    8974
 
 SOLVING FOR HEAD 

 NO OUTPUT CONTROL FOR STRESS PERIOD    1   TIME STEP  421
 SOLVING FOR ZETA FOR LAYER     1 ZONE     2

    4403 UPPER PART EQS.      4390 LOWER PART EQS.    BAND WIDTH + 1 =   95
 STRESS PERIOD=  1 TIMESTEP=421 LAYER=  1 ZONE=  2 ACTIVE CELLS= 8793 NUMBER OF EQUATIONS=    8793
 
 SOLVING FOR HEAD 

 NO OUTPUT CONTROL FOR STRESS PERIOD    1   TIME STEP  422
 SOLVING FOR ZETA FOR LAYER     1 ZONE     2

    4489 UPPER PART EQS.      4488 LOWER PART EQS.    BAND WIDTH + 1 =  100
 STRESS PERIOD=  1 TIMESTEP=422 LAYER=  1 ZONE=  2 ACTIVE CELLS= 8977 NUMBER OF EQUATIONS=    8977
 
 SOLVING FOR HEAD 

 NO OUTPUT CONTROL FOR STRESS PERIOD    1   TIME STEP  423
 SOLVING FOR ZETA FOR LAYER     1 ZONE     2

    4401 UPPER PART EQS.      4387 LOWER PART EQS.    BAND WIDTH + 1 =   95
 STRESS PERIOD=  1 TIMESTEP=423 LAYER=  1 ZONE=  2 ACTIVE CELLS= 8788 NUMBER OF EQUATIONS=    8788
 
 SOLVING FOR HEAD 

 NO OUTPUT CONTROL FOR STRESS PERIOD    1   TIME STEP  424
 SOLVING FOR ZETA FOR LAYER     1 ZONE     2

    4483 UPPER PART EQS.      4487 LOWER PART EQS.    BAND WIDTH + 1 =  100
 STRESS PERIOD=  1 TIMESTEP=424 LAYER=  1 ZONE=  2 ACTIVE CELLS= 8970 NUMBER OF EQUATIONS=    8970
 
 SOLVING FOR HEAD 

 NO OUTPUT CONTROL FOR STRESS PERIOD    1   TIME STEP  425
 SOLVING FOR ZETA FOR LAYER     1 ZONE     2

    4398 UPPER PART EQS.      4385 LOWER PART EQS.    BAND WIDTH + 1 =   94
 STRESS PERIOD=  1 TIMESTEP=425 LAYER=  1 ZONE=  2 ACTIVE CELLS= 8783 NUMBER OF EQUATIONS=    8783
 
 SOLVING FOR HEAD 

 NO OUTPUT CONTROL FOR STRESS PERIOD    1   TIME STEP  426
 SOLVING FOR ZETA FOR LAYER     1 ZONE     2

    4483 UPPER PART EQS.      4486 LOWER PART EQS.    BAND WIDTH + 1 =   99
 STRESS PERIOD=  1 TIMESTEP=426 LAYER=  1 ZONE=  2 ACTIVE CELLS= 8969 NUMBER OF EQUATIONS=    8969
 
 SOLVING FOR HEAD 

 NO OUTPUT CONTROL FOR STRESS PERIOD    1   TIME STEP  427
 SOLVING FOR ZETA FOR LAYER     1 ZONE     2

    4397 UPPER PART EQS.      4384 LOWER PART EQS.    BAND WIDTH + 1 =   94
 STRESS PERIOD=  1 TIMESTEP=427 LAYER=  1 ZONE=  2 ACTIVE CELLS= 8781 NUMBER OF EQUATIONS=    8781
 
 SOLVING FOR HEAD 

 NO OUTPUT CONTROL FOR STRESS PERIOD    1   TIME STEP  428
 SOLVING FOR ZETA FOR LAYER     1 ZONE     2

    4477 UPPER PART EQS.      4484 LOWER PART EQS.    BAND WIDTH + 1 =  100
 STRESS PERIOD=  1 TIMESTEP=428 LAYER=  1 ZONE=  2 ACTIVE CELLS= 8961 NUMBER OF EQUATIONS=    8961
 
 SOLVING FOR HEAD 

 NO OUTPUT CONTROL FOR STRESS PERIOD    1   TIME STEP  429
 SOLVING FOR ZETA FOR LAYER     1 ZONE     2

    4399 UPPER PART EQS.      4384 LOWER PART EQS.    BAND WIDTH + 1 =   94
 STRESS PERIOD=  1 TIMESTEP=429 LAYER=  1 ZONE=  2 ACTIVE CELLS= 8783 NUMBER OF EQUATIONS=    8783
 
 SOLVING FOR HEAD 

 NO OUTPUT CONTROL FOR STRESS PERIOD    1   TIME STEP  430
 SOLVING FOR ZETA FOR LAYER     1 ZONE     2

    4479 UPPER PART EQS.      4473 LOWER PART EQS.    BAND WIDTH + 1 =   97
 STRESS PERIOD=  1 TIMESTEP=430 LAYER=  1 ZONE=  2 ACTIVE CELLS= 8952 NUMBER OF EQUATIONS=    8952
 
 SOLVING FOR HEAD 

 NO OUTPUT CONTROL FOR STRESS PERIOD    1   TIME STEP  431
 SOLVING FOR ZETA FOR LAYER     1 ZONE     2

    4399 UPPER PART EQS.      4384 LOWER PART EQS.    BAND WIDTH + 1 =   94
 STRESS PERIOD=  1 TIMESTEP=431 LAYER=  1 ZONE=  2 ACTIVE CELLS= 8783 NUMBER OF EQUATIONS=    8783
 
 SOLVING FOR HEAD 

 NO OUTPUT CONTROL FOR STRESS PERIOD    1   TIME STEP  432
 SOLVING FOR ZETA FOR LAYER     1 ZONE     2

    4474 UPPER PART EQS.      4470 LOWER PART EQS.    BAND WIDTH + 1 =   97
 STRESS PERIOD=  1 TIMESTEP=432 LAYER=  1 ZONE=  2 ACTIVE CELLS= 8944 NUMBER OF EQUATIONS=    8944
 
 SOLVING FOR HEAD 

 NO OUTPUT CONTROL FOR STRESS PERIOD    1   TIME STEP  433
 SOLVING FOR ZETA FOR LAYER     1 ZONE     2

    4398 UPPER PART EQS.      4388 LOWER PART EQS.    BAND WIDTH + 1 =   94
 STRESS PERIOD=  1 TIMESTEP=433 LAYER=  1 ZONE=  2 ACTIVE CELLS= 8786 NUMBER OF EQUATIONS=    8786
 
 SOLVING FOR HEAD 

 NO OUTPUT CONTROL FOR STRESS PERIOD    1   TIME STEP  434
 SOLVING FOR ZETA FOR LAYER     1 ZONE     2

    4475 UPPER PART EQS.      4466 LOWER PART EQS.    BAND WIDTH + 1 =   96
 STRESS PERIOD=  1 TIMESTEP=434 LAYER=  1 ZONE=  2 ACTIVE CELLS= 8941 NUMBER OF EQUATIONS=    8941
 
 SOLVING FOR HEAD 

 NO OUTPUT CONTROL FOR STRESS PERIOD    1   TIME STEP  435
 SOLVING FOR ZETA FOR LAYER     1 ZONE     2

    4396 UPPER PART EQS.      4387 LOWER PART EQS.    BAND WIDTH + 1 =   94
 STRESS PERIOD=  1 TIMESTEP=435 LAYER=  1 ZONE=  2 ACTIVE CELLS= 8783 NUMBER OF EQUATIONS=    8783
 
 SOLVING FOR HEAD 

 NO OUTPUT CONTROL FOR STRESS PERIOD    1   TIME STEP  436
 SOLVING FOR ZETA FOR LAYER     1 ZONE     2

    4469 UPPER PART EQS.      4467 LOWER PART EQS.    BAND WIDTH + 1 =   97
 STRESS PERIOD=  1 TIMESTEP=436 LAYER=  1 ZONE=  2 ACTIVE CELLS= 8936 NUMBER OF EQUATIONS=    8936
 
 SOLVING FOR HEAD 

 NO OUTPUT CONTROL FOR STRESS PERIOD    1   TIME STEP  437
 SOLVING FOR ZETA FOR LAYER     1 ZONE     2

    4394 UPPER PART EQS.      4383 LOWER PART EQS.    BAND WIDTH + 1 =   94
 STRESS PERIOD=  1 TIMESTEP=437 LAYER=  1 ZONE=  2 ACTIVE CELLS= 8777 NUMBER OF EQUATIONS=    8777
 
 SOLVING FOR HEAD 

 NO OUTPUT CONTROL FOR STRESS PERIOD    1   TIME STEP  438
 SOLVING FOR ZETA FOR LAYER     1 ZONE     2

    4464 UPPER PART EQS.      4466 LOWER PART EQS.    BAND WIDTH + 1 =   96
 STRESS PERIOD=  1 TIMESTEP=438 LAYER=  1 ZONE=  2 ACTIVE CELLS= 8930 NUMBER OF EQUATIONS=    8930
 
 SOLVING FOR HEAD 

 NO OUTPUT CONTROL FOR STRESS PERIOD    1   TIME STEP  439
 SOLVING FOR ZETA FOR LAYER     1 ZONE     2

    4389 UPPER PART EQS.      4385 LOWER PART EQS.    BAND WIDTH + 1 =   94
 STRESS PERIOD=  1 TIMESTEP=439 LAYER=  1 ZONE=  2 ACTIVE CELLS= 8774 NUMBER OF EQUATIONS=    8774
 
 SOLVING FOR HEAD 

 NO OUTPUT CONTROL FOR STRESS PERIOD    1   TIME STEP  440
 SOLVING FOR ZETA FOR LAYER     1 ZONE     2

    4465 UPPER PART EQS.      4461 LOWER PART EQS.    BAND WIDTH + 1 =   96
 STRESS PERIOD=  1 TIMESTEP=440 LAYER=  1 ZONE=  2 ACTIVE CELLS= 8926 NUMBER OF EQUATIONS=    8926
 
 SOLVING FOR HEAD 

 NO OUTPUT CONTROL FOR STRESS PERIOD    1   TIME STEP  441
 SOLVING FOR ZETA FOR LAYER     1 ZONE     2

    4385 UPPER PART EQS.      4382 LOWER PART EQS.    BAND WIDTH + 1 =   94
 STRESS PERIOD=  1 TIMESTEP=441 LAYER=  1 ZONE=  2 ACTIVE CELLS= 8767 NUMBER OF EQUATIONS=    8767
 
 SOLVING FOR HEAD 

 NO OUTPUT CONTROL FOR STRESS PERIOD    1   TIME STEP  442
 SOLVING FOR ZETA FOR LAYER     1 ZONE     2

    4463 UPPER PART EQS.      4460 LOWER PART EQS.    BAND WIDTH + 1 =   96
 STRESS PERIOD=  1 TIMESTEP=442 LAYER=  1 ZONE=  2 ACTIVE CELLS= 8923 NUMBER OF EQUATIONS=    8923
 
 SOLVING FOR HEAD 

 NO OUTPUT CONTROL FOR STRESS PERIOD    1   TIME STEP  443
 SOLVING FOR ZETA FOR LAYER     1 ZONE     2

    4384 UPPER PART EQS.      4377 LOWER PART EQS.    BAND WIDTH + 1 =   93
 STRESS PERIOD=  1 TIMESTEP=443 LAYER=  1 ZONE=  2 ACTIVE CELLS= 8761 NUMBER OF EQUATIONS=    8761
 
 SOLVING FOR HEAD 

 NO OUTPUT CONTROL FOR STRESS PERIOD    1   TIME STEP  444
 SOLVING FOR ZETA FOR LAYER     1 ZONE     2

    4463 UPPER PART EQS.      4461 LOWER PART EQS.    BAND WIDTH + 1 =   96
 STRESS PERIOD=  1 TIMESTEP=444 LAYER=  1 ZONE=  2 ACTIVE CELLS= 8924 NUMBER OF EQUATIONS=    8924
 
 SOLVING FOR HEAD 

 NO OUTPUT CONTROL FOR STRESS PERIOD    1   TIME STEP  445
 SOLVING FOR ZETA FOR LAYER     1 ZONE     2

    4379 UPPER PART EQS.      4376 LOWER PART EQS.    BAND WIDTH + 1 =   93
 STRESS PERIOD=  1 TIMESTEP=445 LAYER=  1 ZONE=  2 ACTIVE CELLS= 8755 NUMBER OF EQUATIONS=    8755
 
 SOLVING FOR HEAD 

 NO OUTPUT CONTROL FOR STRESS PERIOD    1   TIME STEP  446
 SOLVING FOR ZETA FOR LAYER     1 ZONE     2

    4460 UPPER PART EQS.      4463 LOWER PART EQS.    BAND WIDTH + 1 =   96
 STRESS PERIOD=  1 TIMESTEP=446 LAYER=  1 ZONE=  2 ACTIVE CELLS= 8923 NUMBER OF EQUATIONS=    8923
 
 SOLVING FOR HEAD 

 NO OUTPUT CONTROL FOR STRESS PERIOD    1   TIME STEP  447
 SOLVING FOR ZETA FOR LAYER     1 ZONE     2

    4381 UPPER PART EQS.      4374 LOWER PART EQS.    BAND WIDTH + 1 =   94
 STRESS PERIOD=  1 TIMESTEP=447 LAYER=  1 ZONE=  2 ACTIVE CELLS= 8755 NUMBER OF EQUATIONS=    8755
 
 SOLVING FOR HEAD 

 NO OUTPUT CONTROL FOR STRESS PERIOD    1   TIME STEP  448
 SOLVING FOR ZETA FOR LAYER     1 ZONE     2

    4460 UPPER PART EQS.      4458 LOWER PART EQS.    BAND WIDTH + 1 =   96
 STRESS PERIOD=  1 TIMESTEP=448 LAYER=  1 ZONE=  2 ACTIVE CELLS= 8918 NUMBER OF EQUATIONS=    8918
 
 SOLVING FOR HEAD 

 NO OUTPUT CONTROL FOR STRESS PERIOD    1   TIME STEP  449
 SOLVING FOR ZETA FOR LAYER     1 ZONE     2

    4380 UPPER PART EQS.      4374 LOWER PART EQS.    BAND WIDTH + 1 =   94
 STRESS PERIOD=  1 TIMESTEP=449 LAYER=  1 ZONE=  2 ACTIVE CELLS= 8754 NUMBER OF EQUATIONS=    8754
 
 SOLVING FOR HEAD 

 NO OUTPUT CONTROL FOR STRESS PERIOD    1   TIME STEP  450
 SOLVING FOR ZETA FOR LAYER     1 ZONE     2

    4459 UPPER PART EQS.      4456 LOWER PART EQS.    BAND WIDTH + 1 =   96
 STRESS PERIOD=  1 TIMESTEP=450 LAYER=  1 ZONE=  2 ACTIVE CELLS= 8915 NUMBER OF EQUATIONS=    8915
 
 SOLVING FOR HEAD 

 NO OUTPUT CONTROL FOR STRESS PERIOD    1   TIME STEP  451
 SOLVING FOR ZETA FOR LAYER     1 ZONE     2

    4380 UPPER PART EQS.      4370 LOWER PART EQS.    BAND WIDTH + 1 =   94
 STRESS PERIOD=  1 TIMESTEP=451 LAYER=  1 ZONE=  2 ACTIVE CELLS= 8750 NUMBER OF EQUATIONS=    8750
 
 SOLVING FOR HEAD 

 NO OUTPUT CONTROL FOR STRESS PERIOD    1   TIME STEP  452
 SOLVING FOR ZETA FOR LAYER     1 ZONE     2

    4454 UPPER PART EQS.      4460 LOWER PART EQS.    BAND WIDTH + 1 =   96
 STRESS PERIOD=  1 TIMESTEP=452 LAYER=  1 ZONE=  2 ACTIVE CELLS= 8914 NUMBER OF EQUATIONS=    8914
 
 SOLVING FOR HEAD 

 NO OUTPUT CONTROL FOR STRESS PERIOD    1   TIME STEP  453
 SOLVING FOR ZETA FOR LAYER     1 ZONE     2

    4378 UPPER PART EQS.      4369 LOWER PART EQS.    BAND WIDTH + 1 =   94
 STRESS PERIOD=  1 TIMESTEP=453 LAYER=  1 ZONE=  2 ACTIVE CELLS= 8747 NUMBER OF EQUATIONS=    8747
 
 SOLVING FOR HEAD 

 NO OUTPUT CONTROL FOR STRESS PERIOD    1   TIME STEP  454
 SOLVING FOR ZETA FOR LAYER     1 ZONE     2

    4453 UPPER PART EQS.      4462 LOWER PART EQS.    BAND WIDTH + 1 =   97
 STRESS PERIOD=  1 TIMESTEP=454 LAYER=  1 ZONE=  2 ACTIVE CELLS= 8915 NUMBER OF EQUATIONS=    8915
 
 SOLVING FOR HEAD 

 NO OUTPUT CONTROL FOR STRESS PERIOD    1   TIME STEP  455
 SOLVING FOR ZETA FOR LAYER     1 ZONE     2

    4376 UPPER PART EQS.      4367 LOWER PART EQS.    BAND WIDTH + 1 =   95
 STRESS PERIOD=  1 TIMESTEP=455 LAYER=  1 ZONE=  2 ACTIVE CELLS= 8743 NUMBER OF EQUATIONS=    8743
 
 SOLVING FOR HEAD 

 NO OUTPUT CONTROL FOR STRESS PERIOD    1   TIME STEP  456
 SOLVING FOR ZETA FOR LAYER     1 ZONE     2

    4449 UPPER PART EQS.      4461 LOWER PART EQS.    BAND WIDTH + 1 =   97
 STRESS PERIOD=  1 TIMESTEP=456 LAYER=  1 ZONE=  2 ACTIVE CELLS= 8910 NUMBER OF EQUATIONS=    8910
 
 SOLVING FOR HEAD 

 NO OUTPUT CONTROL FOR STRESS PERIOD    1   TIME STEP  457
 SOLVING FOR ZETA FOR LAYER     1 ZONE     2

    4382 UPPER PART EQS.      4364 LOWER PART EQS.    BAND WIDTH + 1 =   96
 STRESS PERIOD=  1 TIMESTEP=457 LAYER=  1 ZONE=  2 ACTIVE CELLS= 8746 NUMBER OF EQUATIONS=    8746
 
 SOLVING FOR HEAD 

 NO OUTPUT CONTROL FOR STRESS PERIOD    1   TIME STEP  458
 SOLVING FOR ZETA FOR LAYER     1 ZONE     2

    4450 UPPER PART EQS.      4459 LOWER PART EQS.    BAND WIDTH + 1 =   97
 STRESS PERIOD=  1 TIMESTEP=458 LAYER=  1 ZONE=  2 ACTIVE CELLS= 8909 NUMBER OF EQUATIONS=    8909
 
 SOLVING FOR HEAD 

 NO OUTPUT CONTROL FOR STRESS PERIOD    1   TIME STEP  459
 SOLVING FOR ZETA FOR LAYER     1 ZONE     2

    4377 UPPER PART EQS.      4363 LOWER PART EQS.    BAND WIDTH + 1 =   94
 STRESS PERIOD=  1 TIMESTEP=459 LAYER=  1 ZONE=  2 ACTIVE CELLS= 8740 NUMBER OF EQUATIONS=    8740
 
 SOLVING FOR HEAD 

 NO OUTPUT CONTROL FOR STRESS PERIOD    1   TIME STEP  460
 SOLVING FOR ZETA FOR LAYER     1 ZONE     2

    4451 UPPER PART EQS.      4458 LOWER PART EQS.    BAND WIDTH + 1 =   97
 STRESS PERIOD=  1 TIMESTEP=460 LAYER=  1 ZONE=  2 ACTIVE CELLS= 8909 NUMBER OF EQUATIONS=    8909
 
 SOLVING FOR HEAD 

 NO OUTPUT CONTROL FOR STRESS PERIOD    1   TIME STEP  461
 SOLVING FOR ZETA FOR LAYER     1 ZONE     2

    4381 UPPER PART EQS.      4359 LOWER PART EQS.    BAND WIDTH + 1 =   94
 STRESS PERIOD=  1 TIMESTEP=461 LAYER=  1 ZONE=  2 ACTIVE CELLS= 8740 NUMBER OF EQUATIONS=    8740
 
 SOLVING FOR HEAD 

 NO OUTPUT CONTROL FOR STRESS PERIOD    1   TIME STEP  462
 SOLVING FOR ZETA FOR LAYER     1 ZONE     2

    4446 UPPER PART EQS.      4456 LOWER PART EQS.    BAND WIDTH + 1 =   98
 STRESS PERIOD=  1 TIMESTEP=462 LAYER=  1 ZONE=  2 ACTIVE CELLS= 8902 NUMBER OF EQUATIONS=    8902
 
 SOLVING FOR HEAD 

 NO OUTPUT CONTROL FOR STRESS PERIOD    1   TIME STEP  463
 SOLVING FOR ZETA FOR LAYER     1 ZONE     2

    4381 UPPER PART EQS.      4357 LOWER PART EQS.    BAND WIDTH + 1 =   94
 STRESS PERIOD=  1 TIMESTEP=463 LAYER=  1 ZONE=  2 ACTIVE CELLS= 8738 NUMBER OF EQUATIONS=    8738
 
 SOLVING FOR HEAD 

 NO OUTPUT CONTROL FOR STRESS PERIOD    1   TIME STEP  464
 SOLVING FOR ZETA FOR LAYER     1 ZONE     2

    4442 UPPER PART EQS.      4458 LOWER PART EQS.    BAND WIDTH + 1 =   97
 STRESS PERIOD=  1 TIMESTEP=464 LAYER=  1 ZONE=  2 ACTIVE CELLS= 8900 NUMBER OF EQUATIONS=    8900
 
 SOLVING FOR HEAD 

 NO OUTPUT CONTROL FOR STRESS PERIOD    1   TIME STEP  465
 SOLVING FOR ZETA FOR LAYER     1 ZONE     2

    4381 UPPER PART EQS.      4360 LOWER PART EQS.    BAND WIDTH + 1 =   94
 STRESS PERIOD=  1 TIMESTEP=465 LAYER=  1 ZONE=  2 ACTIVE CELLS= 8741 NUMBER OF EQUATIONS=    8741
 
 SOLVING FOR HEAD 

 NO OUTPUT CONTROL FOR STRESS PERIOD    1   TIME STEP  466
 SOLVING FOR ZETA FOR LAYER     1 ZONE     2

    4444 UPPER PART EQS.      4459 LOWER PART EQS.    BAND WIDTH + 1 =   97
 STRESS PERIOD=  1 TIMESTEP=466 LAYER=  1 ZONE=  2 ACTIVE CELLS= 8903 NUMBER OF EQUATIONS=    8903
 
 SOLVING FOR HEAD 

 NO OUTPUT CONTROL FOR STRESS PERIOD    1   TIME STEP  467
 SOLVING FOR ZETA FOR LAYER     1 ZONE     2

    4378 UPPER PART EQS.      4356 LOWER PART EQS.    BAND WIDTH + 1 =   94
 STRESS PERIOD=  1 TIMESTEP=467 LAYER=  1 ZONE=  2 ACTIVE CELLS= 8734 NUMBER OF EQUATIONS=    8734
 
 SOLVING FOR HEAD 

 NO OUTPUT CONTROL FOR STRESS PERIOD    1   TIME STEP  468
 SOLVING FOR ZETA FOR LAYER     1 ZONE     2

    4446 UPPER PART EQS.      4462 LOWER PART EQS.    BAND WIDTH + 1 =   97
 STRESS PERIOD=  1 TIMESTEP=468 LAYER=  1 ZONE=  2 ACTIVE CELLS= 8908 NUMBER OF EQUATIONS=    8908
 
 SOLVING FOR HEAD 

 NO OUTPUT CONTROL FOR STRESS PERIOD    1   TIME STEP  469
 SOLVING FOR ZETA FOR LAYER     1 ZONE     2

    4377 UPPER PART EQS.      4353 LOWER PART EQS.    BAND WIDTH + 1 =   94
 STRESS PERIOD=  1 TIMESTEP=469 LAYER=  1 ZONE=  2 ACTIVE CELLS= 8730 NUMBER OF EQUATIONS=    8730
 
 SOLVING FOR HEAD 

 NO OUTPUT CONTROL FOR STRESS PERIOD    1   TIME STEP  470
 SOLVING FOR ZETA FOR LAYER     1 ZONE     2

    4442 UPPER PART EQS.      4458 LOWER PART EQS.    BAND WIDTH + 1 =   97
 STRESS PERIOD=  1 TIMESTEP=470 LAYER=  1 ZONE=  2 ACTIVE CELLS= 8900 NUMBER OF EQUATIONS=    8900
 
 SOLVING FOR HEAD 

 NO OUTPUT CONTROL FOR STRESS PERIOD    1   TIME STEP  471
 SOLVING FOR ZETA FOR LAYER     1 ZONE     2

    4376 UPPER PART EQS.      4355 LOWER PART EQS.    BAND WIDTH + 1 =   95
 STRESS PERIOD=  1 TIMESTEP=471 LAYER=  1 ZONE=  2 ACTIVE CELLS= 8731 NUMBER OF EQUATIONS=    8731
 
 SOLVING FOR HEAD 

 NO OUTPUT CONTROL FOR STRESS PERIOD    1   TIME STEP  472
 SOLVING FOR ZETA FOR LAYER     1 ZONE     2

    4437 UPPER PART EQS.      4456 LOWER PART EQS.    BAND WIDTH + 1 =   98
 STRESS PERIOD=  1 TIMESTEP=472 LAYER=  1 ZONE=  2 ACTIVE CELLS= 8893 NUMBER OF EQUATIONS=    8893
 
 SOLVING FOR HEAD 

 NO OUTPUT CONTROL FOR STRESS PERIOD    1   TIME STEP  473
 SOLVING FOR ZETA FOR LAYER     1 ZONE     2

    4372 UPPER PART EQS.      4353 LOWER PART EQS.    BAND WIDTH + 1 =   94
 STRESS PERIOD=  1 TIMESTEP=473 LAYER=  1 ZONE=  2 ACTIVE CELLS= 8725 NUMBER OF EQUATIONS=    8725
 
 SOLVING FOR HEAD 

 NO OUTPUT CONTROL FOR STRESS PERIOD    1   TIME STEP  474
 SOLVING FOR ZETA FOR LAYER     1 ZONE     2

    4444 UPPER PART EQS.      4450 LOWER PART EQS.    BAND WIDTH + 1 =   97
 STRESS PERIOD=  1 TIMESTEP=474 LAYER=  1 ZONE=  2 ACTIVE CELLS= 8894 NUMBER OF EQUATIONS=    8894
 
 SOLVING FOR HEAD 

 NO OUTPUT CONTROL FOR STRESS PERIOD    1   TIME STEP  475
 SOLVING FOR ZETA FOR LAYER     1 ZONE     2

    4369 UPPER PART EQS.      4352 LOWER PART EQS.    BAND WIDTH + 1 =   94
 STRESS PERIOD=  1 TIMESTEP=475 LAYER=  1 ZONE=  2 ACTIVE CELLS= 8721 NUMBER OF EQUATIONS=    8721
 
 SOLVING FOR HEAD 

 NO OUTPUT CONTROL FOR STRESS PERIOD    1   TIME STEP  476
 SOLVING FOR ZETA FOR LAYER     1 ZONE     2

    4443 UPPER PART EQS.      4456 LOWER PART EQS.    BAND WIDTH + 1 =   98
 STRESS PERIOD=  1 TIMESTEP=476 LAYER=  1 ZONE=  2 ACTIVE CELLS= 8899 NUMBER OF EQUATIONS=    8899
 
 SOLVING FOR HEAD 

 NO OUTPUT CONTROL FOR STRESS PERIOD    1   TIME STEP  477
 SOLVING FOR ZETA FOR LAYER     1 ZONE     2

    4369 UPPER PART EQS.      4350 LOWER PART EQS.    BAND WIDTH + 1 =   94
 STRESS PERIOD=  1 TIMESTEP=477 LAYER=  1 ZONE=  2 ACTIVE CELLS= 8719 NUMBER OF EQUATIONS=    8719
 
 SOLVING FOR HEAD 

 NO OUTPUT CONTROL FOR STRESS PERIOD    1   TIME STEP  478
 SOLVING FOR ZETA FOR LAYER     1 ZONE     2

    4445 UPPER PART EQS.      4457 LOWER PART EQS.    BAND WIDTH + 1 =   98
 STRESS PERIOD=  1 TIMESTEP=478 LAYER=  1 ZONE=  2 ACTIVE CELLS= 8902 NUMBER OF EQUATIONS=    8902
 
 SOLVING FOR HEAD 

 NO OUTPUT CONTROL FOR STRESS PERIOD    1   TIME STEP  479
 SOLVING FOR ZETA FOR LAYER     1 ZONE     2

    4366 UPPER PART EQS.      4354 LOWER PART EQS.    BAND WIDTH + 1 =   94
 STRESS PERIOD=  1 TIMESTEP=479 LAYER=  1 ZONE=  2 ACTIVE CELLS= 8720 NUMBER OF EQUATIONS=    8720
 
 SOLVING FOR HEAD 

 NO OUTPUT CONTROL FOR STRESS PERIOD    1   TIME STEP  480
 SOLVING FOR ZETA FOR LAYER     1 ZONE     2

    4437 UPPER PART EQS.      4449 LOWER PART EQS.    BAND WIDTH + 1 =   96
 STRESS PERIOD=  1 TIMESTEP=480 LAYER=  1 ZONE=  2 ACTIVE CELLS= 8886 NUMBER OF EQUATIONS=    8886
 
 SOLVING FOR HEAD 

 NO OUTPUT CONTROL FOR STRESS PERIOD    1   TIME STEP  481
 SOLVING FOR ZETA FOR LAYER     1 ZONE     2

    4368 UPPER PART EQS.      4356 LOWER PART EQS.    BAND WIDTH + 1 =   94
 STRESS PERIOD=  1 TIMESTEP=481 LAYER=  1 ZONE=  2 ACTIVE CELLS= 8724 NUMBER OF EQUATIONS=    8724
 
 SOLVING FOR HEAD 

 NO OUTPUT CONTROL FOR STRESS PERIOD    1   TIME STEP  482
 SOLVING FOR ZETA FOR LAYER     1 ZONE     2

    4436 UPPER PART EQS.      4452 LOWER PART EQS.    BAND WIDTH + 1 =   97
 STRESS PERIOD=  1 TIMESTEP=482 LAYER=  1 ZONE=  2 ACTIVE CELLS= 8888 NUMBER OF EQUATIONS=    8888
 
 SOLVING FOR HEAD 

 NO OUTPUT CONTROL FOR STRESS PERIOD    1   TIME STEP  483
 SOLVING FOR ZETA FOR LAYER     1 ZONE     2

    4365 UPPER PART EQS.      4353 LOWER PART EQS.    BAND WIDTH + 1 =   94
 STRESS PERIOD=  1 TIMESTEP=483 LAYER=  1 ZONE=  2 ACTIVE CELLS= 8718 NUMBER OF EQUATIONS=    8718
 
 SOLVING FOR HEAD 

 NO OUTPUT CONTROL FOR STRESS PERIOD    1   TIME STEP  484
 SOLVING FOR ZETA FOR LAYER     1 ZONE     2

    4435 UPPER PART EQS.      4447 LOWER PART EQS.    BAND WIDTH + 1 =   96
 STRESS PERIOD=  1 TIMESTEP=484 LAYER=  1 ZONE=  2 ACTIVE CELLS= 8882 NUMBER OF EQUATIONS=    8882
 
 SOLVING FOR HEAD 

 NO OUTPUT CONTROL FOR STRESS PERIOD    1   TIME STEP  485
 SOLVING FOR ZETA FOR LAYER     1 ZONE     2

    4367 UPPER PART EQS.      4355 LOWER PART EQS.    BAND WIDTH + 1 =   94
 STRESS PERIOD=  1 TIMESTEP=485 LAYER=  1 ZONE=  2 ACTIVE CELLS= 8722 NUMBER OF EQUATIONS=    8722
 
 SOLVING FOR HEAD 

 NO OUTPUT CONTROL FOR STRESS PERIOD    1   TIME STEP  486
 SOLVING FOR ZETA FOR LAYER     1 ZONE     2

    4438 UPPER PART EQS.      4450 LOWER PART EQS.    BAND WIDTH + 1 =   96
 STRESS PERIOD=  1 TIMESTEP=486 LAYER=  1 ZONE=  2 ACTIVE CELLS= 8888 NUMBER OF EQUATIONS=    8888
 
 SOLVING FOR HEAD 

 NO OUTPUT CONTROL FOR STRESS PERIOD    1   TIME STEP  487
 SOLVING FOR ZETA FOR LAYER     1 ZONE     2

    4372 UPPER PART EQS.      4353 LOWER PART EQS.    BAND WIDTH + 1 =   96
 STRESS PERIOD=  1 TIMESTEP=487 LAYER=  1 ZONE=  2 ACTIVE CELLS= 8725 NUMBER OF EQUATIONS=    8725
 
 SOLVING FOR HEAD 

 NO OUTPUT CONTROL FOR STRESS PERIOD    1   TIME STEP  488
 SOLVING FOR ZETA FOR LAYER     1 ZONE     2

    4436 UPPER PART EQS.      4447 LOWER PART EQS.    BAND WIDTH + 1 =   96
 STRESS PERIOD=  1 TIMESTEP=488 LAYER=  1 ZONE=  2 ACTIVE CELLS= 8883 NUMBER OF EQUATIONS=    8883
 
 SOLVING FOR HEAD 

 NO OUTPUT CONTROL FOR STRESS PERIOD    1   TIME STEP  489
 SOLVING FOR ZETA FOR LAYER     1 ZONE     2

    4373 UPPER PART EQS.      4352 LOWER PART EQS.    BAND WIDTH + 1 =   95
 STRESS PERIOD=  1 TIMESTEP=489 LAYER=  1 ZONE=  2 ACTIVE CELLS= 8725 NUMBER OF EQUATIONS=    8725
 
 SOLVING FOR HEAD 

 NO OUTPUT CONTROL FOR STRESS PERIOD    1   TIME STEP  490
 SOLVING FOR ZETA FOR LAYER     1 ZONE     2

    4436 UPPER PART EQS.      4443 LOWER PART EQS.    BAND WIDTH + 1 =   97
 STRESS PERIOD=  1 TIMESTEP=490 LAYER=  1 ZONE=  2 ACTIVE CELLS= 8879 NUMBER OF EQUATIONS=    8879
 
 SOLVING FOR HEAD 

 NO OUTPUT CONTROL FOR STRESS PERIOD    1   TIME STEP  491
 SOLVING FOR ZETA FOR LAYER     1 ZONE     2

    4369 UPPER PART EQS.      4352 LOWER PART EQS.    BAND WIDTH + 1 =   95
 STRESS PERIOD=  1 TIMESTEP=491 LAYER=  1 ZONE=  2 ACTIVE CELLS= 8721 NUMBER OF EQUATIONS=    8721
 
 SOLVING FOR HEAD 

 NO OUTPUT CONTROL FOR STRESS PERIOD    1   TIME STEP  492
 SOLVING FOR ZETA FOR LAYER     1 ZONE     2

    4437 UPPER PART EQS.      4438 LOWER PART EQS.    BAND WIDTH + 1 =   97
 STRESS PERIOD=  1 TIMESTEP=492 LAYER=  1 ZONE=  2 ACTIVE CELLS= 8875 NUMBER OF EQUATIONS=    8875
 
 SOLVING FOR HEAD 

 NO OUTPUT CONTROL FOR STRESS PERIOD    1   TIME STEP  493
 SOLVING FOR ZETA FOR LAYER     1 ZONE     2

    4368 UPPER PART EQS.      4351 LOWER PART EQS.    BAND WIDTH + 1 =   95
 STRESS PERIOD=  1 TIMESTEP=493 LAYER=  1 ZONE=  2 ACTIVE CELLS= 8719 NUMBER OF EQUATIONS=    8719
 
 SOLVING FOR HEAD 

 NO OUTPUT CONTROL FOR STRESS PERIOD    1   TIME STEP  494
 SOLVING FOR ZETA FOR LAYER     1 ZONE     2

    4437 UPPER PART EQS.      4441 LOWER PART EQS.    BAND WIDTH + 1 =   97
 STRESS PERIOD=  1 TIMESTEP=494 LAYER=  1 ZONE=  2 ACTIVE CELLS= 8878 NUMBER OF EQUATIONS=    8878
 
 SOLVING FOR HEAD 

 NO OUTPUT CONTROL FOR STRESS PERIOD    1   TIME STEP  495
 SOLVING FOR ZETA FOR LAYER     1 ZONE     2

    4366 UPPER PART EQS.      4348 LOWER PART EQS.    BAND WIDTH + 1 =   95
 STRESS PERIOD=  1 TIMESTEP=495 LAYER=  1 ZONE=  2 ACTIVE CELLS= 8714 NUMBER OF EQUATIONS=    8714
 
 SOLVING FOR HEAD 

 NO OUTPUT CONTROL FOR STRESS PERIOD    1   TIME STEP  496
 SOLVING FOR ZETA FOR LAYER     1 ZONE     2

    4435 UPPER PART EQS.      4438 LOWER PART EQS.    BAND WIDTH + 1 =   96
 STRESS PERIOD=  1 TIMESTEP=496 LAYER=  1 ZONE=  2 ACTIVE CELLS= 8873 NUMBER OF EQUATIONS=    8873
 
 SOLVING FOR HEAD 

 NO OUTPUT CONTROL FOR STRESS PERIOD    1   TIME STEP  497
 SOLVING FOR ZETA FOR LAYER     1 ZONE     2

    4368 UPPER PART EQS.      4350 LOWER PART EQS.    BAND WIDTH + 1 =   95
 STRESS PERIOD=  1 TIMESTEP=497 LAYER=  1 ZONE=  2 ACTIVE CELLS= 8718 NUMBER OF EQUATIONS=    8718
 
 SOLVING FOR HEAD 

 NO OUTPUT CONTROL FOR STRESS PERIOD    1   TIME STEP  498
 SOLVING FOR ZETA FOR LAYER     1 ZONE     2

    4434 UPPER PART EQS.      4438 LOWER PART EQS.    BAND WIDTH + 1 =   97
 STRESS PERIOD=  1 TIMESTEP=498 LAYER=  1 ZONE=  2 ACTIVE CELLS= 8872 NUMBER OF EQUATIONS=    8872
 
 SOLVING FOR HEAD 

 NO OUTPUT CONTROL FOR STRESS PERIOD    1   TIME STEP  499
 SOLVING FOR ZETA FOR LAYER     1 ZONE     2

    4368 UPPER PART EQS.      4345 LOWER PART EQS.    BAND WIDTH + 1 =   98
 STRESS PERIOD=  1 TIMESTEP=499 LAYER=  1 ZONE=  2 ACTIVE CELLS= 8713 NUMBER OF EQUATIONS=    8713
 
 SOLVING FOR HEAD 

 NO OUTPUT CONTROL FOR STRESS PERIOD    1   TIME STEP  500
 SOLVING FOR ZETA FOR LAYER     1 ZONE     2

    4434 UPPER PART EQS.      4431 LOWER PART EQS.    BAND WIDTH + 1 =   97
 STRESS PERIOD=  1 TIMESTEP=500 LAYER=  1 ZONE=  2 ACTIVE CELLS= 8865 NUMBER OF EQUATIONS=    8865
 
 SOLVING FOR HEAD 

 NO OUTPUT CONTROL FOR STRESS PERIOD    1   TIME STEP  501
 SOLVING FOR ZETA FOR LAYER     1 ZONE     2

    4367 UPPER PART EQS.      4343 LOWER PART EQS.    BAND WIDTH + 1 =   95
 STRESS PERIOD=  1 TIMESTEP=501 LAYER=  1 ZONE=  2 ACTIVE CELLS= 8710 NUMBER OF EQUATIONS=    8710
 
 SOLVING FOR HEAD 

 NO OUTPUT CONTROL FOR STRESS PERIOD    1   TIME STEP  502
 SOLVING FOR ZETA FOR LAYER     1 ZONE     2

    4434 UPPER PART EQS.      4436 LOWER PART EQS.    BAND WIDTH + 1 =   97
 STRESS PERIOD=  1 TIMESTEP=502 LAYER=  1 ZONE=  2 ACTIVE CELLS= 8870 NUMBER OF EQUATIONS=    8870
 
 SOLVING FOR HEAD 

 NO OUTPUT CONTROL FOR STRESS PERIOD    1   TIME STEP  503
 SOLVING FOR ZETA FOR LAYER     1 ZONE     2

    4365 UPPER PART EQS.      4338 LOWER PART EQS.    BAND WIDTH + 1 =   94
 STRESS PERIOD=  1 TIMESTEP=503 LAYER=  1 ZONE=  2 ACTIVE CELLS= 8703 NUMBER OF EQUATIONS=    8703
 
 SOLVING FOR HEAD 

 NO OUTPUT CONTROL FOR STRESS PERIOD    1   TIME STEP  504
 SOLVING FOR ZETA FOR LAYER     1 ZONE     2

    4432 UPPER PART EQS.      4441 LOWER PART EQS.    BAND WIDTH + 1 =   97
 STRESS PERIOD=  1 TIMESTEP=504 LAYER=  1 ZONE=  2 ACTIVE CELLS= 8873 NUMBER OF EQUATIONS=    8873
 
 SOLVING FOR HEAD 

 NO OUTPUT CONTROL FOR STRESS PERIOD    1   TIME STEP  505
 SOLVING FOR ZETA FOR LAYER     1 ZONE     2

    4365 UPPER PART EQS.      4338 LOWER PART EQS.    BAND WIDTH + 1 =   94
 STRESS PERIOD=  1 TIMESTEP=505 LAYER=  1 ZONE=  2 ACTIVE CELLS= 8703 NUMBER OF EQUATIONS=    8703
 
 SOLVING FOR HEAD 

 NO OUTPUT CONTROL FOR STRESS PERIOD    1   TIME STEP  506
 SOLVING FOR ZETA FOR LAYER     1 ZONE     2

    4429 UPPER PART EQS.      4440 LOWER PART EQS.    BAND WIDTH + 1 =   97
 STRESS PERIOD=  1 TIMESTEP=506 LAYER=  1 ZONE=  2 ACTIVE CELLS= 8869 NUMBER OF EQUATIONS=    8869
 
 SOLVING FOR HEAD 

 NO OUTPUT CONTROL FOR STRESS PERIOD    1   TIME STEP  507
 SOLVING FOR ZETA FOR LAYER     1 ZONE     2

    4362 UPPER PART EQS.      4338 LOWER PART EQS.    BAND WIDTH + 1 =   94
 STRESS PERIOD=  1 TIMESTEP=507 LAYER=  1 ZONE=  2 ACTIVE CELLS= 8700 NUMBER OF EQUATIONS=    8700
 
 SOLVING FOR HEAD 

 NO OUTPUT CONTROL FOR STRESS PERIOD    1   TIME STEP  508
 SOLVING FOR ZETA FOR LAYER     1 ZONE     2

    4427 UPPER PART EQS.      4438 LOWER PART EQS.    BAND WIDTH + 1 =   97
 STRESS PERIOD=  1 TIMESTEP=508 LAYER=  1 ZONE=  2 ACTIVE CELLS= 8865 NUMBER OF EQUATIONS=    8865
 
 SOLVING FOR HEAD 

 NO OUTPUT CONTROL FOR STRESS PERIOD    1   TIME STEP  509
 SOLVING FOR ZETA FOR LAYER     1 ZONE     2

    4361 UPPER PART EQS.      4339 LOWER PART EQS.    BAND WIDTH + 1 =   94
 STRESS PERIOD=  1 TIMESTEP=509 LAYER=  1 ZONE=  2 ACTIVE CELLS= 8700 NUMBER OF EQUATIONS=    8700
 
 SOLVING FOR HEAD 

 NO OUTPUT CONTROL FOR STRESS PERIOD    1   TIME STEP  510
 SOLVING FOR ZETA FOR LAYER     1 ZONE     2

    4428 UPPER PART EQS.      4439 LOWER PART EQS.    BAND WIDTH + 1 =   97
 STRESS PERIOD=  1 TIMESTEP=510 LAYER=  1 ZONE=  2 ACTIVE CELLS= 8867 NUMBER OF EQUATIONS=    8867
 
 SOLVING FOR HEAD 

 NO OUTPUT CONTROL FOR STRESS PERIOD    1   TIME STEP  511
 SOLVING FOR ZETA FOR LAYER     1 ZONE     2

    4359 UPPER PART EQS.      4336 LOWER PART EQS.    BAND WIDTH + 1 =   94
 STRESS PERIOD=  1 TIMESTEP=511 LAYER=  1 ZONE=  2 ACTIVE CELLS= 8695 NUMBER OF EQUATIONS=    8695
 
 SOLVING FOR HEAD 

 NO OUTPUT CONTROL FOR STRESS PERIOD    1   TIME STEP  512
 SOLVING FOR ZETA FOR LAYER     1 ZONE     2

    4430 UPPER PART EQS.      4438 LOWER PART EQS.    BAND WIDTH + 1 =   97
 STRESS PERIOD=  1 TIMESTEP=512 LAYER=  1 ZONE=  2 ACTIVE CELLS= 8868 NUMBER OF EQUATIONS=    8868
 
 SOLVING FOR HEAD 

 NO OUTPUT CONTROL FOR STRESS PERIOD    1   TIME STEP  513
 SOLVING FOR ZETA FOR LAYER     1 ZONE     2

    4361 UPPER PART EQS.      4341 LOWER PART EQS.    BAND WIDTH + 1 =   94
 STRESS PERIOD=  1 TIMESTEP=513 LAYER=  1 ZONE=  2 ACTIVE CELLS= 8702 NUMBER OF EQUATIONS=    8702
 
 SOLVING FOR HEAD 

 NO OUTPUT CONTROL FOR STRESS PERIOD    1   TIME STEP  514
 SOLVING FOR ZETA FOR LAYER     1 ZONE     2

    4427 UPPER PART EQS.      4436 LOWER PART EQS.    BAND WIDTH + 1 =   96
 STRESS PERIOD=  1 TIMESTEP=514 LAYER=  1 ZONE=  2 ACTIVE CELLS= 8863 NUMBER OF EQUATIONS=    8863
 
 SOLVING FOR HEAD 

 NO OUTPUT CONTROL FOR STRESS PERIOD    1   TIME STEP  515
 SOLVING FOR ZETA FOR LAYER     1 ZONE     2

    4355 UPPER PART EQS.      4340 LOWER PART EQS.    BAND WIDTH + 1 =   93
 STRESS PERIOD=  1 TIMESTEP=515 LAYER=  1 ZONE=  2 ACTIVE CELLS= 8695 NUMBER OF EQUATIONS=    8695
 
 SOLVING FOR HEAD 

 NO OUTPUT CONTROL FOR STRESS PERIOD    1   TIME STEP  516
 SOLVING FOR ZETA FOR LAYER     1 ZONE     2

    4429 UPPER PART EQS.      4438 LOWER PART EQS.    BAND WIDTH + 1 =   97
 STRESS PERIOD=  1 TIMESTEP=516 LAYER=  1 ZONE=  2 ACTIVE CELLS= 8867 NUMBER OF EQUATIONS=    8867
 
 SOLVING FOR HEAD 

 NO OUTPUT CONTROL FOR STRESS PERIOD    1   TIME STEP  517
 SOLVING FOR ZETA FOR LAYER     1 ZONE     2

    4356 UPPER PART EQS.      4337 LOWER PART EQS.    BAND WIDTH + 1 =   95
 STRESS PERIOD=  1 TIMESTEP=517 LAYER=  1 ZONE=  2 ACTIVE CELLS= 8693 NUMBER OF EQUATIONS=    8693
 
 SOLVING FOR HEAD 

 NO OUTPUT CONTROL FOR STRESS PERIOD    1   TIME STEP  518
 SOLVING FOR ZETA FOR LAYER     1 ZONE     2

    4428 UPPER PART EQS.      4441 LOWER PART EQS.    BAND WIDTH + 1 =   96
 STRESS PERIOD=  1 TIMESTEP=518 LAYER=  1 ZONE=  2 ACTIVE CELLS= 8869 NUMBER OF EQUATIONS=    8869
 
 SOLVING FOR HEAD 

 NO OUTPUT CONTROL FOR STRESS PERIOD    1   TIME STEP  519
 SOLVING FOR ZETA FOR LAYER     1 ZONE     2

    4354 UPPER PART EQS.      4339 LOWER PART EQS.    BAND WIDTH + 1 =   94
 STRESS PERIOD=  1 TIMESTEP=519 LAYER=  1 ZONE=  2 ACTIVE CELLS= 8693 NUMBER OF EQUATIONS=    8693
 
 SOLVING FOR HEAD 

 NO OUTPUT CONTROL FOR STRESS PERIOD    1   TIME STEP  520
 SOLVING FOR ZETA FOR LAYER     1 ZONE     2

    4427 UPPER PART EQS.      4436 LOWER PART EQS.    BAND WIDTH + 1 =   96
 STRESS PERIOD=  1 TIMESTEP=520 LAYER=  1 ZONE=  2 ACTIVE CELLS= 8863 NUMBER OF EQUATIONS=    8863
 
 SOLVING FOR HEAD 

 NO OUTPUT CONTROL FOR STRESS PERIOD    1   TIME STEP  521
 SOLVING FOR ZETA FOR LAYER     1 ZONE     2

    4352 UPPER PART EQS.      4341 LOWER PART EQS.    BAND WIDTH + 1 =   93
 STRESS PERIOD=  1 TIMESTEP=521 LAYER=  1 ZONE=  2 ACTIVE CELLS= 8693 NUMBER OF EQUATIONS=    8693
 
 SOLVING FOR HEAD 

 NO OUTPUT CONTROL FOR STRESS PERIOD    1   TIME STEP  522
 SOLVING FOR ZETA FOR LAYER     1 ZONE     2

    4421 UPPER PART EQS.      4436 LOWER PART EQS.    BAND WIDTH + 1 =   96
 STRESS PERIOD=  1 TIMESTEP=522 LAYER=  1 ZONE=  2 ACTIVE CELLS= 8857 NUMBER OF EQUATIONS=    8857
 
 SOLVING FOR HEAD 

 NO OUTPUT CONTROL FOR STRESS PERIOD    1   TIME STEP  523
 SOLVING FOR ZETA FOR LAYER     1 ZONE     2

    4354 UPPER PART EQS.      4337 LOWER PART EQS.    BAND WIDTH + 1 =   93
 STRESS PERIOD=  1 TIMESTEP=523 LAYER=  1 ZONE=  2 ACTIVE CELLS= 8691 NUMBER OF EQUATIONS=    8691
 
 SOLVING FOR HEAD 

 NO OUTPUT CONTROL FOR STRESS PERIOD    1   TIME STEP  524
 SOLVING FOR ZETA FOR LAYER     1 ZONE     2

    4419 UPPER PART EQS.      4437 LOWER PART EQS.    BAND WIDTH + 1 =   97
 STRESS PERIOD=  1 TIMESTEP=524 LAYER=  1 ZONE=  2 ACTIVE CELLS= 8856 NUMBER OF EQUATIONS=    8856
 
 SOLVING FOR HEAD 

 NO OUTPUT CONTROL FOR STRESS PERIOD    1   TIME STEP  525
 SOLVING FOR ZETA FOR LAYER     1 ZONE     2

    4352 UPPER PART EQS.      4334 LOWER PART EQS.    BAND WIDTH + 1 =   93
 STRESS PERIOD=  1 TIMESTEP=525 LAYER=  1 ZONE=  2 ACTIVE CELLS= 8686 NUMBER OF EQUATIONS=    8686
 
 SOLVING FOR HEAD 

 NO OUTPUT CONTROL FOR STRESS PERIOD    1   TIME STEP  526
 SOLVING FOR ZETA FOR LAYER     1 ZONE     2

    4422 UPPER PART EQS.      4436 LOWER PART EQS.    BAND WIDTH + 1 =   96
 STRESS PERIOD=  1 TIMESTEP=526 LAYER=  1 ZONE=  2 ACTIVE CELLS= 8858 NUMBER OF EQUATIONS=    8858
 
 SOLVING FOR HEAD 

 NO OUTPUT CONTROL FOR STRESS PERIOD    1   TIME STEP  527
 SOLVING FOR ZETA FOR LAYER     1 ZONE     2

    4351 UPPER PART EQS.      4331 LOWER PART EQS.    BAND WIDTH + 1 =   93
 STRESS PERIOD=  1 TIMESTEP=527 LAYER=  1 ZONE=  2 ACTIVE CELLS= 8682 NUMBER OF EQUATIONS=    8682
 
 SOLVING FOR HEAD 

 NO OUTPUT CONTROL FOR STRESS PERIOD    1   TIME STEP  528
 SOLVING FOR ZETA FOR LAYER     1 ZONE     2

    4425 UPPER PART EQS.      4441 LOWER PART EQS.    BAND WIDTH + 1 =   96
 STRESS PERIOD=  1 TIMESTEP=528 LAYER=  1 ZONE=  2 ACTIVE CELLS= 8866 NUMBER OF EQUATIONS=    8866
 
 SOLVING FOR HEAD 

 NO OUTPUT CONTROL FOR STRESS PERIOD    1   TIME STEP  529
 SOLVING FOR ZETA FOR LAYER     1 ZONE     2

    4347 UPPER PART EQS.      4329 LOWER PART EQS.    BAND WIDTH + 1 =   93
 STRESS PERIOD=  1 TIMESTEP=529 LAYER=  1 ZONE=  2 ACTIVE CELLS= 8676 NUMBER OF EQUATIONS=    8676
 
 SOLVING FOR HEAD 

 NO OUTPUT CONTROL FOR STRESS PERIOD    1   TIME STEP  530
 SOLVING FOR ZETA FOR LAYER     1 ZONE     2

    4423 UPPER PART EQS.      4442 LOWER PART EQS.    BAND WIDTH + 1 =   96
 STRESS PERIOD=  1 TIMESTEP=530 LAYER=  1 ZONE=  2 ACTIVE CELLS= 8865 NUMBER OF EQUATIONS=    8865
 
 SOLVING FOR HEAD 

 NO OUTPUT CONTROL FOR STRESS PERIOD    1   TIME STEP  531
 SOLVING FOR ZETA FOR LAYER     1 ZONE     2

    4349 UPPER PART EQS.      4333 LOWER PART EQS.    BAND WIDTH + 1 =   93
 STRESS PERIOD=  1 TIMESTEP=531 LAYER=  1 ZONE=  2 ACTIVE CELLS= 8682 NUMBER OF EQUATIONS=    8682
 
 SOLVING FOR HEAD 

 NO OUTPUT CONTROL FOR STRESS PERIOD    1   TIME STEP  532
 SOLVING FOR ZETA FOR LAYER     1 ZONE     2

    4427 UPPER PART EQS.      4441 LOWER PART EQS.    BAND WIDTH + 1 =   95
 STRESS PERIOD=  1 TIMESTEP=532 LAYER=  1 ZONE=  2 ACTIVE CELLS= 8868 NUMBER OF EQUATIONS=    8868
 
 SOLVING FOR HEAD 

 NO OUTPUT CONTROL FOR STRESS PERIOD    1   TIME STEP  533
 SOLVING FOR ZETA FOR LAYER     1 ZONE     2

    4345 UPPER PART EQS.      4333 LOWER PART EQS.    BAND WIDTH + 1 =   93
 STRESS PERIOD=  1 TIMESTEP=533 LAYER=  1 ZONE=  2 ACTIVE CELLS= 8678 NUMBER OF EQUATIONS=    8678
 
 SOLVING FOR HEAD 

 NO OUTPUT CONTROL FOR STRESS PERIOD    1   TIME STEP  534
 SOLVING FOR ZETA FOR LAYER     1 ZONE     2

    4426 UPPER PART EQS.      4441 LOWER PART EQS.    BAND WIDTH + 1 =   96
 STRESS PERIOD=  1 TIMESTEP=534 LAYER=  1 ZONE=  2 ACTIVE CELLS= 8867 NUMBER OF EQUATIONS=    8867
 
 SOLVING FOR HEAD 

 NO OUTPUT CONTROL FOR STRESS PERIOD    1   TIME STEP  535
 SOLVING FOR ZETA FOR LAYER     1 ZONE     2

    4347 UPPER PART EQS.      4330 LOWER PART EQS.    BAND WIDTH + 1 =   93
 STRESS PERIOD=  1 TIMESTEP=535 LAYER=  1 ZONE=  2 ACTIVE CELLS= 8677 NUMBER OF EQUATIONS=    8677
 
 SOLVING FOR HEAD 

 NO OUTPUT CONTROL FOR STRESS PERIOD    1   TIME STEP  536
 SOLVING FOR ZETA FOR LAYER     1 ZONE     2

    4426 UPPER PART EQS.      4435 LOWER PART EQS.    BAND WIDTH + 1 =   95
 STRESS PERIOD=  1 TIMESTEP=536 LAYER=  1 ZONE=  2 ACTIVE CELLS= 8861 NUMBER OF EQUATIONS=    8861
 
 SOLVING FOR HEAD 

 NO OUTPUT CONTROL FOR STRESS PERIOD    1   TIME STEP  537
 SOLVING FOR ZETA FOR LAYER     1 ZONE     2

    4343 UPPER PART EQS.      4331 LOWER PART EQS.    BAND WIDTH + 1 =   93
 STRESS PERIOD=  1 TIMESTEP=537 LAYER=  1 ZONE=  2 ACTIVE CELLS= 8674 NUMBER OF EQUATIONS=    8674
 
 SOLVING FOR HEAD 

 NO OUTPUT CONTROL FOR STRESS PERIOD    1   TIME STEP  538
 SOLVING FOR ZETA FOR LAYER     1 ZONE     2

    4428 UPPER PART EQS.      4433 LOWER PART EQS.    BAND WIDTH + 1 =   95
 STRESS PERIOD=  1 TIMESTEP=538 LAYER=  1 ZONE=  2 ACTIVE CELLS= 8861 NUMBER OF EQUATIONS=    8861
 
 SOLVING FOR HEAD 

 NO OUTPUT CONTROL FOR STRESS PERIOD    1   TIME STEP  539
 SOLVING FOR ZETA FOR LAYER     1 ZONE     2

    4345 UPPER PART EQS.      4333 LOWER PART EQS.    BAND WIDTH + 1 =   93
 STRESS PERIOD=  1 TIMESTEP=539 LAYER=  1 ZONE=  2 ACTIVE CELLS= 8678 NUMBER OF EQUATIONS=    8678
 
 SOLVING FOR HEAD 

 NO OUTPUT CONTROL FOR STRESS PERIOD    1   TIME STEP  540
 SOLVING FOR ZETA FOR LAYER     1 ZONE     2

    4428 UPPER PART EQS.      4432 LOWER PART EQS.    BAND WIDTH + 1 =   95
 STRESS PERIOD=  1 TIMESTEP=540 LAYER=  1 ZONE=  2 ACTIVE CELLS= 8860 NUMBER OF EQUATIONS=    8860
 
 SOLVING FOR HEAD 

 NO OUTPUT CONTROL FOR STRESS PERIOD    1   TIME STEP  541
 SOLVING FOR ZETA FOR LAYER     1 ZONE     2

    4345 UPPER PART EQS.      4332 LOWER PART EQS.    BAND WIDTH + 1 =   93
 STRESS PERIOD=  1 TIMESTEP=541 LAYER=  1 ZONE=  2 ACTIVE CELLS= 8677 NUMBER OF EQUATIONS=    8677
 
 SOLVING FOR HEAD 

 NO OUTPUT CONTROL FOR STRESS PERIOD    1   TIME STEP  542
 SOLVING FOR ZETA FOR LAYER     1 ZONE     2

    4427 UPPER PART EQS.      4428 LOWER PART EQS.    BAND WIDTH + 1 =   95
 STRESS PERIOD=  1 TIMESTEP=542 LAYER=  1 ZONE=  2 ACTIVE CELLS= 8855 NUMBER OF EQUATIONS=    8855
 
 SOLVING FOR HEAD 

 NO OUTPUT CONTROL FOR STRESS PERIOD    1   TIME STEP  543
 SOLVING FOR ZETA FOR LAYER     1 ZONE     2

    4346 UPPER PART EQS.      4336 LOWER PART EQS.    BAND WIDTH + 1 =   93
 STRESS PERIOD=  1 TIMESTEP=543 LAYER=  1 ZONE=  2 ACTIVE CELLS= 8682 NUMBER OF EQUATIONS=    8682
 
 SOLVING FOR HEAD 

 NO OUTPUT CONTROL FOR STRESS PERIOD    1   TIME STEP  544
 SOLVING FOR ZETA FOR LAYER     1 ZONE     2

    4428 UPPER PART EQS.      4430 LOWER PART EQS.    BAND WIDTH + 1 =   95
 STRESS PERIOD=  1 TIMESTEP=544 LAYER=  1 ZONE=  2 ACTIVE CELLS= 8858 NUMBER OF EQUATIONS=    8858
 
 SOLVING FOR HEAD 

 NO OUTPUT CONTROL FOR STRESS PERIOD    1   TIME STEP  545
 SOLVING FOR ZETA FOR LAYER     1 ZONE     2

    4341 UPPER PART EQS.      4337 LOWER PART EQS.    BAND WIDTH + 1 =   93
 STRESS PERIOD=  1 TIMESTEP=545 LAYER=  1 ZONE=  2 ACTIVE CELLS= 8678 NUMBER OF EQUATIONS=    8678
 
 SOLVING FOR HEAD 

 NO OUTPUT CONTROL FOR STRESS PERIOD    1   TIME STEP  546
 SOLVING FOR ZETA FOR LAYER     1 ZONE     2

    4426 UPPER PART EQS.      4429 LOWER PART EQS.    BAND WIDTH + 1 =   95
 STRESS PERIOD=  1 TIMESTEP=546 LAYER=  1 ZONE=  2 ACTIVE CELLS= 8855 NUMBER OF EQUATIONS=    8855
 
 SOLVING FOR HEAD 

 NO OUTPUT CONTROL FOR STRESS PERIOD    1   TIME STEP  547
 SOLVING FOR ZETA FOR LAYER     1 ZONE     2

    4345 UPPER PART EQS.      4336 LOWER PART EQS.    BAND WIDTH + 1 =   93
 STRESS PERIOD=  1 TIMESTEP=547 LAYER=  1 ZONE=  2 ACTIVE CELLS= 8681 NUMBER OF EQUATIONS=    8681
 
 SOLVING FOR HEAD 

 NO OUTPUT CONTROL FOR STRESS PERIOD    1   TIME STEP  548
 SOLVING FOR ZETA FOR LAYER     1 ZONE     2

    4429 UPPER PART EQS.      4423 LOWER PART EQS.    BAND WIDTH + 1 =   95
 STRESS PERIOD=  1 TIMESTEP=548 LAYER=  1 ZONE=  2 ACTIVE CELLS= 8852 NUMBER OF EQUATIONS=    8852
 
 SOLVING FOR HEAD 

 NO OUTPUT CONTROL FOR STRESS PERIOD    1   TIME STEP  549
 SOLVING FOR ZETA FOR LAYER     1 ZONE     2

    4347 UPPER PART EQS.      4336 LOWER PART EQS.    BAND WIDTH + 1 =   93
 STRESS PERIOD=  1 TIMESTEP=549 LAYER=  1 ZONE=  2 ACTIVE CELLS= 8683 NUMBER OF EQUATIONS=    8683
 
 SOLVING FOR HEAD 

 NO OUTPUT CONTROL FOR STRESS PERIOD    1   TIME STEP  550
 SOLVING FOR ZETA FOR LAYER     1 ZONE     2

    4426 UPPER PART EQS.      4423 LOWER PART EQS.    BAND WIDTH + 1 =   94
 STRESS PERIOD=  1 TIMESTEP=550 LAYER=  1 ZONE=  2 ACTIVE CELLS= 8849 NUMBER OF EQUATIONS=    8849
 
 SOLVING FOR HEAD 

 NO OUTPUT CONTROL FOR STRESS PERIOD    1   TIME STEP  551
 SOLVING FOR ZETA FOR LAYER     1 ZONE     2

    4351 UPPER PART EQS.      4339 LOWER PART EQS.    BAND WIDTH + 1 =   93
 STRESS PERIOD=  1 TIMESTEP=551 LAYER=  1 ZONE=  2 ACTIVE CELLS= 8690 NUMBER OF EQUATIONS=    8690
 
 SOLVING FOR HEAD 

 NO OUTPUT CONTROL FOR STRESS PERIOD    1   TIME STEP  552
 SOLVING FOR ZETA FOR LAYER     1 ZONE     2

    4425 UPPER PART EQS.      4422 LOWER PART EQS.    BAND WIDTH + 1 =   94
 STRESS PERIOD=  1 TIMESTEP=552 LAYER=  1 ZONE=  2 ACTIVE CELLS= 8847 NUMBER OF EQUATIONS=    8847
 
 SOLVING FOR HEAD 

 NO OUTPUT CONTROL FOR STRESS PERIOD    1   TIME STEP  553
 SOLVING FOR ZETA FOR LAYER     1 ZONE     2

    4351 UPPER PART EQS.      4332 LOWER PART EQS.    BAND WIDTH + 1 =   93
 STRESS PERIOD=  1 TIMESTEP=553 LAYER=  1 ZONE=  2 ACTIVE CELLS= 8683 NUMBER OF EQUATIONS=    8683
 
 SOLVING FOR HEAD 

 NO OUTPUT CONTROL FOR STRESS PERIOD    1   TIME STEP  554
 SOLVING FOR ZETA FOR LAYER     1 ZONE     2

    4424 UPPER PART EQS.      4421 LOWER PART EQS.    BAND WIDTH + 1 =   94
 STRESS PERIOD=  1 TIMESTEP=554 LAYER=  1 ZONE=  2 ACTIVE CELLS= 8845 NUMBER OF EQUATIONS=    8845
 
 SOLVING FOR HEAD 

 NO OUTPUT CONTROL FOR STRESS PERIOD    1   TIME STEP  555
 SOLVING FOR ZETA FOR LAYER     1 ZONE     2

    4350 UPPER PART EQS.      4335 LOWER PART EQS.    BAND WIDTH + 1 =   93
 STRESS PERIOD=  1 TIMESTEP=555 LAYER=  1 ZONE=  2 ACTIVE CELLS= 8685 NUMBER OF EQUATIONS=    8685
 
 SOLVING FOR HEAD 

 NO OUTPUT CONTROL FOR STRESS PERIOD    1   TIME STEP  556
 SOLVING FOR ZETA FOR LAYER     1 ZONE     2

    4420 UPPER PART EQS.      4423 LOWER PART EQS.    BAND WIDTH + 1 =   94
 STRESS PERIOD=  1 TIMESTEP=556 LAYER=  1 ZONE=  2 ACTIVE CELLS= 8843 NUMBER OF EQUATIONS=    8843
 
 SOLVING FOR HEAD 

 NO OUTPUT CONTROL FOR STRESS PERIOD    1   TIME STEP  557
 SOLVING FOR ZETA FOR LAYER     1 ZONE     2

    4351 UPPER PART EQS.      4334 LOWER PART EQS.    BAND WIDTH + 1 =   93
 STRESS PERIOD=  1 TIMESTEP=557 LAYER=  1 ZONE=  2 ACTIVE CELLS= 8685 NUMBER OF EQUATIONS=    8685
 
 SOLVING FOR HEAD 

 NO OUTPUT CONTROL FOR STRESS PERIOD    1   TIME STEP  558
 SOLVING FOR ZETA FOR LAYER     1 ZONE     2

    4419 UPPER PART EQS.      4425 LOWER PART EQS.    BAND WIDTH + 1 =   94
 STRESS PERIOD=  1 TIMESTEP=558 LAYER=  1 ZONE=  2 ACTIVE CELLS= 8844 NUMBER OF EQUATIONS=    8844
 
 SOLVING FOR HEAD 

 NO OUTPUT CONTROL FOR STRESS PERIOD    1   TIME STEP  559
 SOLVING FOR ZETA FOR LAYER     1 ZONE     2

    4348 UPPER PART EQS.      4336 LOWER PART EQS.    BAND WIDTH + 1 =   93
 STRESS PERIOD=  1 TIMESTEP=559 LAYER=  1 ZONE=  2 ACTIVE CELLS= 8684 NUMBER OF EQUATIONS=    8684
 
 SOLVING FOR HEAD 

 NO OUTPUT CONTROL FOR STRESS PERIOD    1   TIME STEP  560
 SOLVING FOR ZETA FOR LAYER     1 ZONE     2

    4421 UPPER PART EQS.      4424 LOWER PART EQS.    BAND WIDTH + 1 =   94
 STRESS PERIOD=  1 TIMESTEP=560 LAYER=  1 ZONE=  2 ACTIVE CELLS= 8845 NUMBER OF EQUATIONS=    8845
 
 SOLVING FOR HEAD 

 NO OUTPUT CONTROL FOR STRESS PERIOD    1   TIME STEP  561
 SOLVING FOR ZETA FOR LAYER     1 ZONE     2

    4347 UPPER PART EQS.      4336 LOWER PART EQS.    BAND WIDTH + 1 =   93
 STRESS PERIOD=  1 TIMESTEP=561 LAYER=  1 ZONE=  2 ACTIVE CELLS= 8683 NUMBER OF EQUATIONS=    8683
 
 SOLVING FOR HEAD 

 NO OUTPUT CONTROL FOR STRESS PERIOD    1   TIME STEP  562
 SOLVING FOR ZETA FOR LAYER     1 ZONE     2

    4420 UPPER PART EQS.      4425 LOWER PART EQS.    BAND WIDTH + 1 =   94
 STRESS PERIOD=  1 TIMESTEP=562 LAYER=  1 ZONE=  2 ACTIVE CELLS= 8845 NUMBER OF EQUATIONS=    8845
 
 SOLVING FOR HEAD 

 NO OUTPUT CONTROL FOR STRESS PERIOD    1   TIME STEP  563
 SOLVING FOR ZETA FOR LAYER     1 ZONE     2

    4348 UPPER PART EQS.      4335 LOWER PART EQS.    BAND WIDTH + 1 =   93
 STRESS PERIOD=  1 TIMESTEP=563 LAYER=  1 ZONE=  2 ACTIVE CELLS= 8683 NUMBER OF EQUATIONS=    8683
 
 SOLVING FOR HEAD 

 NO OUTPUT CONTROL FOR STRESS PERIOD    1   TIME STEP  564
 SOLVING FOR ZETA FOR LAYER     1 ZONE     2

    4417 UPPER PART EQS.      4423 LOWER PART EQS.    BAND WIDTH + 1 =   94
 STRESS PERIOD=  1 TIMESTEP=564 LAYER=  1 ZONE=  2 ACTIVE CELLS= 8840 NUMBER OF EQUATIONS=    8840
 
 SOLVING FOR HEAD 

 NO OUTPUT CONTROL FOR STRESS PERIOD    1   TIME STEP  565
 SOLVING FOR ZETA FOR LAYER     1 ZONE     2

    4349 UPPER PART EQS.      4334 LOWER PART EQS.    BAND WIDTH + 1 =   93
 STRESS PERIOD=  1 TIMESTEP=565 LAYER=  1 ZONE=  2 ACTIVE CELLS= 8683 NUMBER OF EQUATIONS=    8683
 
 SOLVING FOR HEAD 

 NO OUTPUT CONTROL FOR STRESS PERIOD    1   TIME STEP  566
 SOLVING FOR ZETA FOR LAYER     1 ZONE     2

    4414 UPPER PART EQS.      4423 LOWER PART EQS.    BAND WIDTH + 1 =   94
 STRESS PERIOD=  1 TIMESTEP=566 LAYER=  1 ZONE=  2 ACTIVE CELLS= 8837 NUMBER OF EQUATIONS=    8837
 
 SOLVING FOR HEAD 

 NO OUTPUT CONTROL FOR STRESS PERIOD    1   TIME STEP  567
 SOLVING FOR ZETA FOR LAYER     1 ZONE     2

    4352 UPPER PART EQS.      4331 LOWER PART EQS.    BAND WIDTH + 1 =   94
 STRESS PERIOD=  1 TIMESTEP=567 LAYER=  1 ZONE=  2 ACTIVE CELLS= 8683 NUMBER OF EQUATIONS=    8683
 
 SOLVING FOR HEAD 

 NO OUTPUT CONTROL FOR STRESS PERIOD    1   TIME STEP  568
 SOLVING FOR ZETA FOR LAYER     1 ZONE     2

    4414 UPPER PART EQS.      4424 LOWER PART EQS.    BAND WIDTH + 1 =   94
 STRESS PERIOD=  1 TIMESTEP=568 LAYER=  1 ZONE=  2 ACTIVE CELLS= 8838 NUMBER OF EQUATIONS=    8838
 
 SOLVING FOR HEAD 

 NO OUTPUT CONTROL FOR STRESS PERIOD    1   TIME STEP  569
 SOLVING FOR ZETA FOR LAYER     1 ZONE     2

    4356 UPPER PART EQS.      4333 LOWER PART EQS.    BAND WIDTH + 1 =   94
 STRESS PERIOD=  1 TIMESTEP=569 LAYER=  1 ZONE=  2 ACTIVE CELLS= 8689 NUMBER OF EQUATIONS=    8689
 
 SOLVING FOR HEAD 

 NO OUTPUT CONTROL FOR STRESS PERIOD    1   TIME STEP  570
 SOLVING FOR ZETA FOR LAYER     1 ZONE     2

    4414 UPPER PART EQS.      4428 LOWER PART EQS.    BAND WIDTH + 1 =   94
 STRESS PERIOD=  1 TIMESTEP=570 LAYER=  1 ZONE=  2 ACTIVE CELLS= 8842 NUMBER OF EQUATIONS=    8842
 
 SOLVING FOR HEAD 

 NO OUTPUT CONTROL FOR STRESS PERIOD    1   TIME STEP  571
 SOLVING FOR ZETA FOR LAYER     1 ZONE     2

    4356 UPPER PART EQS.      4330 LOWER PART EQS.    BAND WIDTH + 1 =   94
 STRESS PERIOD=  1 TIMESTEP=571 LAYER=  1 ZONE=  2 ACTIVE CELLS= 8686 NUMBER OF EQUATIONS=    8686
 
 SOLVING FOR HEAD 

 NO OUTPUT CONTROL FOR STRESS PERIOD    1   TIME STEP  572
 SOLVING FOR ZETA FOR LAYER     1 ZONE     2

    4413 UPPER PART EQS.      4428 LOWER PART EQS.    BAND WIDTH + 1 =   94
 STRESS PERIOD=  1 TIMESTEP=572 LAYER=  1 ZONE=  2 ACTIVE CELLS= 8841 NUMBER OF EQUATIONS=    8841
 
 SOLVING FOR HEAD 

 NO OUTPUT CONTROL FOR STRESS PERIOD    1   TIME STEP  573
 SOLVING FOR ZETA FOR LAYER     1 ZONE     2

    4355 UPPER PART EQS.      4330 LOWER PART EQS.    BAND WIDTH + 1 =   94
 STRESS PERIOD=  1 TIMESTEP=573 LAYER=  1 ZONE=  2 ACTIVE CELLS= 8685 NUMBER OF EQUATIONS=    8685
 
 SOLVING FOR HEAD 

 NO OUTPUT CONTROL FOR STRESS PERIOD    1   TIME STEP  574
 SOLVING FOR ZETA FOR LAYER     1 ZONE     2

    4411 UPPER PART EQS.      4425 LOWER PART EQS.    BAND WIDTH + 1 =   94
 STRESS PERIOD=  1 TIMESTEP=574 LAYER=  1 ZONE=  2 ACTIVE CELLS= 8836 NUMBER OF EQUATIONS=    8836
 
 SOLVING FOR HEAD 

 NO OUTPUT CONTROL FOR STRESS PERIOD    1   TIME STEP  575
 SOLVING FOR ZETA FOR LAYER     1 ZONE     2

    4353 UPPER PART EQS.      4331 LOWER PART EQS.    BAND WIDTH + 1 =   92
 STRESS PERIOD=  1 TIMESTEP=575 LAYER=  1 ZONE=  2 ACTIVE CELLS= 8684 NUMBER OF EQUATIONS=    8684
 
 SOLVING FOR HEAD 

 NO OUTPUT CONTROL FOR STRESS PERIOD    1   TIME STEP  576
 SOLVING FOR ZETA FOR LAYER     1 ZONE     2

    4413 UPPER PART EQS.      4426 LOWER PART EQS.    BAND WIDTH + 1 =   95
 STRESS PERIOD=  1 TIMESTEP=576 LAYER=  1 ZONE=  2 ACTIVE CELLS= 8839 NUMBER OF EQUATIONS=    8839
 
 SOLVING FOR HEAD 

 NO OUTPUT CONTROL FOR STRESS PERIOD    1   TIME STEP  577
 SOLVING FOR ZETA FOR LAYER     1 ZONE     2

    4349 UPPER PART EQS.      4331 LOWER PART EQS.    BAND WIDTH + 1 =   93
 STRESS PERIOD=  1 TIMESTEP=577 LAYER=  1 ZONE=  2 ACTIVE CELLS= 8680 NUMBER OF EQUATIONS=    8680
 
 SOLVING FOR HEAD 

 NO OUTPUT CONTROL FOR STRESS PERIOD    1   TIME STEP  578
 SOLVING FOR ZETA FOR LAYER     1 ZONE     2

    4409 UPPER PART EQS.      4425 LOWER PART EQS.    BAND WIDTH + 1 =   95
 STRESS PERIOD=  1 TIMESTEP=578 LAYER=  1 ZONE=  2 ACTIVE CELLS= 8834 NUMBER OF EQUATIONS=    8834
 
 SOLVING FOR HEAD 

 NO OUTPUT CONTROL FOR STRESS PERIOD    1   TIME STEP  579
 SOLVING FOR ZETA FOR LAYER     1 ZONE     2

    4345 UPPER PART EQS.      4329 LOWER PART EQS.    BAND WIDTH + 1 =   93
 STRESS PERIOD=  1 TIMESTEP=579 LAYER=  1 ZONE=  2 ACTIVE CELLS= 8674 NUMBER OF EQUATIONS=    8674
 
 SOLVING FOR HEAD 

 NO OUTPUT CONTROL FOR STRESS PERIOD    1   TIME STEP  580
 SOLVING FOR ZETA FOR LAYER     1 ZONE     2

    4410 UPPER PART EQS.      4425 LOWER PART EQS.    BAND WIDTH + 1 =   95
 STRESS PERIOD=  1 TIMESTEP=580 LAYER=  1 ZONE=  2 ACTIVE CELLS= 8835 NUMBER OF EQUATIONS=    8835
 
 SOLVING FOR HEAD 

 NO OUTPUT CONTROL FOR STRESS PERIOD    1   TIME STEP  581
 SOLVING FOR ZETA FOR LAYER     1 ZONE     2

    4344 UPPER PART EQS.      4327 LOWER PART EQS.    BAND WIDTH + 1 =   93
 STRESS PERIOD=  1 TIMESTEP=581 LAYER=  1 ZONE=  2 ACTIVE CELLS= 8671 NUMBER OF EQUATIONS=    8671
 
 SOLVING FOR HEAD 

 NO OUTPUT CONTROL FOR STRESS PERIOD    1   TIME STEP  582
 SOLVING FOR ZETA FOR LAYER     1 ZONE     2

    4412 UPPER PART EQS.      4423 LOWER PART EQS.    BAND WIDTH + 1 =   94
 STRESS PERIOD=  1 TIMESTEP=582 LAYER=  1 ZONE=  2 ACTIVE CELLS= 8835 NUMBER OF EQUATIONS=    8835
 
 SOLVING FOR HEAD 

 NO OUTPUT CONTROL FOR STRESS PERIOD    1   TIME STEP  583
 SOLVING FOR ZETA FOR LAYER     1 ZONE     2

    4343 UPPER PART EQS.      4330 LOWER PART EQS.    BAND WIDTH + 1 =   93
 STRESS PERIOD=  1 TIMESTEP=583 LAYER=  1 ZONE=  2 ACTIVE CELLS= 8673 NUMBER OF EQUATIONS=    8673
 
 SOLVING FOR HEAD 

 NO OUTPUT CONTROL FOR STRESS PERIOD    1   TIME STEP  584
 SOLVING FOR ZETA FOR LAYER     1 ZONE     2

    4415 UPPER PART EQS.      4421 LOWER PART EQS.    BAND WIDTH + 1 =   95
 STRESS PERIOD=  1 TIMESTEP=584 LAYER=  1 ZONE=  2 ACTIVE CELLS= 8836 NUMBER OF EQUATIONS=    8836
 
 SOLVING FOR HEAD 

 NO OUTPUT CONTROL FOR STRESS PERIOD    1   TIME STEP  585
 SOLVING FOR ZETA FOR LAYER     1 ZONE     2

    4343 UPPER PART EQS.      4327 LOWER PART EQS.    BAND WIDTH + 1 =   94
 STRESS PERIOD=  1 TIMESTEP=585 LAYER=  1 ZONE=  2 ACTIVE CELLS= 8670 NUMBER OF EQUATIONS=    8670
 
 SOLVING FOR HEAD 

 NO OUTPUT CONTROL FOR STRESS PERIOD    1   TIME STEP  586
 SOLVING FOR ZETA FOR LAYER     1 ZONE     2

    4416 UPPER PART EQS.      4424 LOWER PART EQS.    BAND WIDTH + 1 =   96
 STRESS PERIOD=  1 TIMESTEP=586 LAYER=  1 ZONE=  2 ACTIVE CELLS= 8840 NUMBER OF EQUATIONS=    8840
 
 SOLVING FOR HEAD 

 NO OUTPUT CONTROL FOR STRESS PERIOD    1   TIME STEP  587
 SOLVING FOR ZETA FOR LAYER     1 ZONE     2

    4343 UPPER PART EQS.      4329 LOWER PART EQS.    BAND WIDTH + 1 =   94
 STRESS PERIOD=  1 TIMESTEP=587 LAYER=  1 ZONE=  2 ACTIVE CELLS= 8672 NUMBER OF EQUATIONS=    8672
 
 SOLVING FOR HEAD 

 NO OUTPUT CONTROL FOR STRESS PERIOD    1   TIME STEP  588
 SOLVING FOR ZETA FOR LAYER     1 ZONE     2

    4414 UPPER PART EQS.      4421 LOWER PART EQS.    BAND WIDTH + 1 =   95
 STRESS PERIOD=  1 TIMESTEP=588 LAYER=  1 ZONE=  2 ACTIVE CELLS= 8835 NUMBER OF EQUATIONS=    8835
 
 SOLVING FOR HEAD 

 NO OUTPUT CONTROL FOR STRESS PERIOD    1   TIME STEP  589
 SOLVING FOR ZETA FOR LAYER     1 ZONE     2

    4345 UPPER PART EQS.      4329 LOWER PART EQS.    BAND WIDTH + 1 =   93
 STRESS PERIOD=  1 TIMESTEP=589 LAYER=  1 ZONE=  2 ACTIVE CELLS= 8674 NUMBER OF EQUATIONS=    8674
 
 SOLVING FOR HEAD 

 NO OUTPUT CONTROL FOR STRESS PERIOD    1   TIME STEP  590
 SOLVING FOR ZETA FOR LAYER     1 ZONE     2

    4414 UPPER PART EQS.      4420 LOWER PART EQS.    BAND WIDTH + 1 =   95
 STRESS PERIOD=  1 TIMESTEP=590 LAYER=  1 ZONE=  2 ACTIVE CELLS= 8834 NUMBER OF EQUATIONS=    8834
 
 SOLVING FOR HEAD 

 NO OUTPUT CONTROL FOR STRESS PERIOD    1   TIME STEP  591
 SOLVING FOR ZETA FOR LAYER     1 ZONE     2

    4349 UPPER PART EQS.      4325 LOWER PART EQS.    BAND WIDTH + 1 =   94
 STRESS PERIOD=  1 TIMESTEP=591 LAYER=  1 ZONE=  2 ACTIVE CELLS= 8674 NUMBER OF EQUATIONS=    8674
 
 SOLVING FOR HEAD 

 NO OUTPUT CONTROL FOR STRESS PERIOD    1   TIME STEP  592
 SOLVING FOR ZETA FOR LAYER     1 ZONE     2

    4412 UPPER PART EQS.      4419 LOWER PART EQS.    BAND WIDTH + 1 =   96
 STRESS PERIOD=  1 TIMESTEP=592 LAYER=  1 ZONE=  2 ACTIVE CELLS= 8831 NUMBER OF EQUATIONS=    8831
 
 SOLVING FOR HEAD 

 NO OUTPUT CONTROL FOR STRESS PERIOD    1   TIME STEP  593
 SOLVING FOR ZETA FOR LAYER     1 ZONE     2

    4346 UPPER PART EQS.      4326 LOWER PART EQS.    BAND WIDTH + 1 =   94
 STRESS PERIOD=  1 TIMESTEP=593 LAYER=  1 ZONE=  2 ACTIVE CELLS= 8672 NUMBER OF EQUATIONS=    8672
 
 SOLVING FOR HEAD 

 NO OUTPUT CONTROL FOR STRESS PERIOD    1   TIME STEP  594
 SOLVING FOR ZETA FOR LAYER     1 ZONE     2

    4412 UPPER PART EQS.      4417 LOWER PART EQS.    BAND WIDTH + 1 =   96
 STRESS PERIOD=  1 TIMESTEP=594 LAYER=  1 ZONE=  2 ACTIVE CELLS= 8829 NUMBER OF EQUATIONS=    8829
 
 SOLVING FOR HEAD 

 NO OUTPUT CONTROL FOR STRESS PERIOD    1   TIME STEP  595
 SOLVING FOR ZETA FOR LAYER     1 ZONE     2

    4345 UPPER PART EQS.      4328 LOWER PART EQS.    BAND WIDTH + 1 =   93
 STRESS PERIOD=  1 TIMESTEP=595 LAYER=  1 ZONE=  2 ACTIVE CELLS= 8673 NUMBER OF EQUATIONS=    8673
 
 SOLVING FOR HEAD 

 NO OUTPUT CONTROL FOR STRESS PERIOD    1   TIME STEP  596
 SOLVING FOR ZETA FOR LAYER     1 ZONE     2

    4414 UPPER PART EQS.      4416 LOWER PART EQS.    BAND WIDTH + 1 =   96
 STRESS PERIOD=  1 TIMESTEP=596 LAYER=  1 ZONE=  2 ACTIVE CELLS= 8830 NUMBER OF EQUATIONS=    8830
 
 SOLVING FOR HEAD 

 NO OUTPUT CONTROL FOR STRESS PERIOD    1   TIME STEP  597
 SOLVING FOR ZETA FOR LAYER     1 ZONE     2

    4344 UPPER PART EQS.      4331 LOWER PART EQS.    BAND WIDTH + 1 =   93
 STRESS PERIOD=  1 TIMESTEP=597 LAYER=  1 ZONE=  2 ACTIVE CELLS= 8675 NUMBER OF EQUATIONS=    8675
 
 SOLVING FOR HEAD 

 NO OUTPUT CONTROL FOR STRESS PERIOD    1   TIME STEP  598
 SOLVING FOR ZETA FOR LAYER     1 ZONE     2

    4412 UPPER PART EQS.      4416 LOWER PART EQS.    BAND WIDTH + 1 =   96
 STRESS PERIOD=  1 TIMESTEP=598 LAYER=  1 ZONE=  2 ACTIVE CELLS= 8828 NUMBER OF EQUATIONS=    8828
 
 SOLVING FOR HEAD 

 NO OUTPUT CONTROL FOR STRESS PERIOD    1   TIME STEP  599
 SOLVING FOR ZETA FOR LAYER     1 ZONE     2

    4346 UPPER PART EQS.      4329 LOWER PART EQS.    BAND WIDTH + 1 =   93
 STRESS PERIOD=  1 TIMESTEP=599 LAYER=  1 ZONE=  2 ACTIVE CELLS= 8675 NUMBER OF EQUATIONS=    8675
 
 SOLVING FOR HEAD 

 OUTPUT CONTROL FOR STRESS PERIOD    1   TIME STEP  600
    PRINT BUDGET
    SAVE HEAD FOR ALL LAYERS
 SOLVING FOR ZETA FOR LAYER     1 ZONE     2

    4408 UPPER PART EQS.      4419 LOWER PART EQS.    BAND WIDTH + 1 =   95
 STRESS PERIOD=  1 TIMESTEP=600 LAYER=  1 ZONE=  2 ACTIVE CELLS= 8827 NUMBER OF EQUATIONS=    8827
 UBUDSV SAVING "      ZETASRF  1" ON UNIT 55 AT TIME STEP600, STRESS PERIOD    1


                      VOLUMETRIC SWI ZONE BUDGET FOR ENTIRE MODEL
                     AT END OF TIME STEP  600 IN STRESS PERIOD   1
                                      ZONE     1
  -----------------------------------------------------------------------------------

        CUMULATIVE VOLUMES      L**3       RATES FOR THIS TIME STEP      L**3/T
        ------------------                 ------------------------

              IN:                                      IN:
              ---                                      ---
             BOUNDARIES = 26645323776.0000            BOUNDARIES =      607926.9375
          CONSTANT HEAD =           0.0000         CONSTANT HEAD =           0.0000
            ZONE CHANGE =  4144939264.0000           ZONE CHANGE =       10411.0361
       ZONE CHG TIP/TOE =    41551100.0000      ZONE CHG TIP/TOE =         463.6207
            ZONE MIXING =           0.0000           ZONE MIXING =           0.0000

               TOTAL IN = 30831814656.0000              TOTAL IN =      618801.6250

             OUT:                                     OUT:
             ----                                     ----
             BOUNDARIES = 19448965120.0000            BOUNDARIES =      486932.6562
          CONSTANT HEAD =           0.0000         CONSTANT HEAD =           0.0000
            ZONE CHANGE = 11756276736.0000           ZONE CHANGE =      138954.8906
       ZONE CHG TIP/TOE =    28843878.0000      ZONE CHG TIP/TOE =         348.7223
            ZONE MIXING =           0.0000           ZONE MIXING =           0.0000

              TOTAL OUT = 31234084864.0000             TOTAL OUT =      626236.3125

               IN - OUT =  -402270208.0000              IN - OUT =       -7434.6875

    PERCENT DISCREPANCY =          -1.30     PERCENT DISCREPANCY =          -1.19



                      VOLUMETRIC SWI ZONE BUDGET FOR ENTIRE MODEL
                     AT END OF TIME STEP  600 IN STRESS PERIOD   1
                                      ZONE     2
  -----------------------------------------------------------------------------------

        CUMULATIVE VOLUMES      L**3       RATES FOR THIS TIME STEP      L**3/T
        ------------------                 ------------------------

              IN:                                      IN:
              ---                                      ---
             BOUNDARIES =   117022824.0000            BOUNDARIES =        2291.8535
          CONSTANT HEAD =           0.0000         CONSTANT HEAD =           0.0000
            ZONE CHANGE = 11756276736.0000           ZONE CHANGE =      138954.8906
       ZONE CHG TIP/TOE =   470136896.0000      ZONE CHG TIP/TOE =        7893.1592
            ZONE MIXING =           0.0000           ZONE MIXING =           0.0000

               TOTAL IN = 12343436288.0000              TOTAL IN =      149139.9062

             OUT:                                     OUT:
             ----                                     ----
             BOUNDARIES =  7313489920.0000            BOUNDARIES =      123286.1094
          CONSTANT HEAD =           0.0000         CONSTANT HEAD =           0.0000
            ZONE CHANGE =  4586232320.0000           ZONE CHANGE =       17955.4727
       ZONE CHG TIP/TOE =    41551100.0000      ZONE CHG TIP/TOE =         463.6207
            ZONE MIXING =           0.0000           ZONE MIXING =           0.0000

              TOTAL OUT = 11941272576.0000             TOTAL OUT =      141705.2031

               IN - OUT =   402163712.0000              IN - OUT =        7434.7031

    PERCENT DISCREPANCY =           3.31     PERCENT DISCREPANCY =           5.11


 HEAD WILL BE SAVED ON UNIT   51 AT END OF TIME STEP  600, STRESS PERIOD    1
1
  VOLUMETRIC BUDGET FOR ENTIRE MODEL AT END OF TIME STEP  600, STRESS PERIOD   1
  ------------------------------------------------------------------------------

     CUMULATIVE VOLUMES      L**3       RATES FOR THIS TIME STEP      L**3/T
     ------------------                 ------------------------

           IN:                                      IN:
           ---                                      ---
             STORAGE =           0.0000               STORAGE =           0.0000
       CONSTANT HEAD =           0.0000         CONSTANT HEAD =           0.0000
          SWIADDTOCH =           0.0000            SWIADDTOCH =           0.0000
     HEAD DEP BOUNDS =           0.0000       HEAD DEP BOUNDS =           0.0000
            RECHARGE = 29566490624.0000              RECHARGE =      674575.3125

            TOTAL IN = 29566490624.0000              TOTAL IN =      674575.3125

          OUT:                                     OUT:
          ----                                     ----
             STORAGE =           0.0000               STORAGE =           0.0000
       CONSTANT HEAD =           0.0000         CONSTANT HEAD =           0.0000
          SWIADDTOCH =           0.0000            SWIADDTOCH =           0.0000
     HEAD DEP BOUNDS = 29437423616.0000       HEAD DEP BOUNDS =      671630.5625
            RECHARGE =   129068208.0000              RECHARGE =        2944.7622

           TOTAL OUT = 29566492672.0000             TOTAL OUT =      674575.3125

            IN - OUT =       -2048.0000              IN - OUT =           0.0000

 PERCENT DISCREPANCY =          -0.00     PERCENT DISCREPANCY =           0.00






         TIME SUMMARY AT END OF TIME STEP  600 IN STRESS PERIOD    1
                    SECONDS     MINUTES      HOURS       DAYS        YEARS
                    -----------------------------------------------------------
   TIME STEP LENGTH 6.31152E+06 1.05192E+05  1753.2      73.050     0.20000    
 STRESS PERIOD TIME 3.78693E+09 6.31156E+07 1.05193E+06  43830.      120.00    
         TOTAL TIME 3.78693E+09 6.31156E+07 1.05193E+06  43830.      120.00    
1
 
 SOLVING FOR HEAD 

 NO OUTPUT CONTROL FOR STRESS PERIOD    1   TIME STEP  601
 SOLVING FOR ZETA FOR LAYER     1 ZONE     2

    4347 UPPER PART EQS.      4330 LOWER PART EQS.    BAND WIDTH + 1 =   93
 STRESS PERIOD=  1 TIMESTEP=601 LAYER=  1 ZONE=  2 ACTIVE CELLS= 8677 NUMBER OF EQUATIONS=    8677
 
 SOLVING FOR HEAD 

 NO OUTPUT CONTROL FOR STRESS PERIOD    1   TIME STEP  602
 SOLVING FOR ZETA FOR LAYER     1 ZONE     2

    4409 UPPER PART EQS.      4414 LOWER PART EQS.    BAND WIDTH + 1 =   95
 STRESS PERIOD=  1 TIMESTEP=602 LAYER=  1 ZONE=  2 ACTIVE CELLS= 8823 NUMBER OF EQUATIONS=    8823
 
 SOLVING FOR HEAD 

 NO OUTPUT CONTROL FOR STRESS PERIOD    1   TIME STEP  603
 SOLVING FOR ZETA FOR LAYER     1 ZONE     2

    4347 UPPER PART EQS.      4331 LOWER PART EQS.    BAND WIDTH + 1 =   93
 STRESS PERIOD=  1 TIMESTEP=603 LAYER=  1 ZONE=  2 ACTIVE CELLS= 8678 NUMBER OF EQUATIONS=    8678
 
 SOLVING FOR HEAD 

 NO OUTPUT CONTROL FOR STRESS PERIOD    1   TIME STEP  604
 SOLVING FOR ZETA FOR LAYER     1 ZONE     2

    4408 UPPER PART EQS.      4409 LOWER PART EQS.    BAND WIDTH + 1 =   94
 STRESS PERIOD=  1 TIMESTEP=604 LAYER=  1 ZONE=  2 ACTIVE CELLS= 8817 NUMBER OF EQUATIONS=    8817
 
 SOLVING FOR HEAD 

 NO OUTPUT CONTROL FOR STRESS PERIOD    1   TIME STEP  605
 SOLVING FOR ZETA FOR LAYER     1 ZONE     2

    4348 UPPER PART EQS.      4328 LOWER PART EQS.    BAND WIDTH + 1 =   94
 STRESS PERIOD=  1 TIMESTEP=605 LAYER=  1 ZONE=  2 ACTIVE CELLS= 8676 NUMBER OF EQUATIONS=    8676
 
 SOLVING FOR HEAD 

 NO OUTPUT CONTROL FOR STRESS PERIOD    1   TIME STEP  606
 SOLVING FOR ZETA FOR LAYER     1 ZONE     2

    4409 UPPER PART EQS.      4409 LOWER PART EQS.    BAND WIDTH + 1 =   94
 STRESS PERIOD=  1 TIMESTEP=606 LAYER=  1 ZONE=  2 ACTIVE CELLS= 8818 NUMBER OF EQUATIONS=    8818
 
 SOLVING FOR HEAD 

 NO OUTPUT CONTROL FOR STRESS PERIOD    1   TIME STEP  607
 SOLVING FOR ZETA FOR LAYER     1 ZONE     2

    4351 UPPER PART EQS.      4328 LOWER PART EQS.    BAND WIDTH + 1 =   95
 STRESS PERIOD=  1 TIMESTEP=607 LAYER=  1 ZONE=  2 ACTIVE CELLS= 8679 NUMBER OF EQUATIONS=    8679
 
 SOLVING FOR HEAD 

 NO OUTPUT CONTROL FOR STRESS PERIOD    1   TIME STEP  608
 SOLVING FOR ZETA FOR LAYER     1 ZONE     2

    4408 UPPER PART EQS.      4408 LOWER PART EQS.    BAND WIDTH + 1 =   94
 STRESS PERIOD=  1 TIMESTEP=608 LAYER=  1 ZONE=  2 ACTIVE CELLS= 8816 NUMBER OF EQUATIONS=    8816
 
 SOLVING FOR HEAD 

 NO OUTPUT CONTROL FOR STRESS PERIOD    1   TIME STEP  609
 SOLVING FOR ZETA FOR LAYER     1 ZONE     2

    4347 UPPER PART EQS.      4330 LOWER PART EQS.    BAND WIDTH + 1 =   94
 STRESS PERIOD=  1 TIMESTEP=609 LAYER=  1 ZONE=  2 ACTIVE CELLS= 8677 NUMBER OF EQUATIONS=    8677
 
 SOLVING FOR HEAD 

 NO OUTPUT CONTROL FOR STRESS PERIOD    1   TIME STEP  610
 SOLVING FOR ZETA FOR LAYER     1 ZONE     2

    4406 UPPER PART EQS.      4407 LOWER PART EQS.    BAND WIDTH + 1 =   94
 STRESS PERIOD=  1 TIMESTEP=610 LAYER=  1 ZONE=  2 ACTIVE CELLS= 8813 NUMBER OF EQUATIONS=    8813
 
 SOLVING FOR HEAD 

 NO OUTPUT CONTROL FOR STRESS PERIOD    1   TIME STEP  611
 SOLVING FOR ZETA FOR LAYER     1 ZONE     2

    4343 UPPER PART EQS.      4330 LOWER PART EQS.    BAND WIDTH + 1 =   93
 STRESS PERIOD=  1 TIMESTEP=611 LAYER=  1 ZONE=  2 ACTIVE CELLS= 8673 NUMBER OF EQUATIONS=    8673
 
 SOLVING FOR HEAD 

 NO OUTPUT CONTROL FOR STRESS PERIOD    1   TIME STEP  612
 SOLVING FOR ZETA FOR LAYER     1 ZONE     2

    4411 UPPER PART EQS.      4411 LOWER PART EQS.    BAND WIDTH + 1 =   94
 STRESS PERIOD=  1 TIMESTEP=612 LAYER=  1 ZONE=  2 ACTIVE CELLS= 8822 NUMBER OF EQUATIONS=    8822
 
 SOLVING FOR HEAD 

 NO OUTPUT CONTROL FOR STRESS PERIOD    1   TIME STEP  613
 SOLVING FOR ZETA FOR LAYER     1 ZONE     2

    4340 UPPER PART EQS.      4331 LOWER PART EQS.    BAND WIDTH + 1 =   94
 STRESS PERIOD=  1 TIMESTEP=613 LAYER=  1 ZONE=  2 ACTIVE CELLS= 8671 NUMBER OF EQUATIONS=    8671
 
 SOLVING FOR HEAD 

 NO OUTPUT CONTROL FOR STRESS PERIOD    1   TIME STEP  614
 SOLVING FOR ZETA FOR LAYER     1 ZONE     2

    4405 UPPER PART EQS.      4413 LOWER PART EQS.    BAND WIDTH + 1 =   94
 STRESS PERIOD=  1 TIMESTEP=614 LAYER=  1 ZONE=  2 ACTIVE CELLS= 8818 NUMBER OF EQUATIONS=    8818
 
 SOLVING FOR HEAD 

 NO OUTPUT CONTROL FOR STRESS PERIOD    1   TIME STEP  615
 SOLVING FOR ZETA FOR LAYER     1 ZONE     2

    4338 UPPER PART EQS.      4333 LOWER PART EQS.    BAND WIDTH + 1 =   93
 STRESS PERIOD=  1 TIMESTEP=615 LAYER=  1 ZONE=  2 ACTIVE CELLS= 8671 NUMBER OF EQUATIONS=    8671
 
 SOLVING FOR HEAD 

 NO OUTPUT CONTROL FOR STRESS PERIOD    1   TIME STEP  616
 SOLVING FOR ZETA FOR LAYER     1 ZONE     2

    4405 UPPER PART EQS.      4410 LOWER PART EQS.    BAND WIDTH + 1 =   94
 STRESS PERIOD=  1 TIMESTEP=616 LAYER=  1 ZONE=  2 ACTIVE CELLS= 8815 NUMBER OF EQUATIONS=    8815
 
 SOLVING FOR HEAD 

 NO OUTPUT CONTROL FOR STRESS PERIOD    1   TIME STEP  617
 SOLVING FOR ZETA FOR LAYER     1 ZONE     2

    4335 UPPER PART EQS.      4337 LOWER PART EQS.    BAND WIDTH + 1 =   92
 STRESS PERIOD=  1 TIMESTEP=617 LAYER=  1 ZONE=  2 ACTIVE CELLS= 8672 NUMBER OF EQUATIONS=    8672
 
 SOLVING FOR HEAD 

 NO OUTPUT CONTROL FOR STRESS PERIOD    1   TIME STEP  618
 SOLVING FOR ZETA FOR LAYER     1 ZONE     2

    4403 UPPER PART EQS.      4412 LOWER PART EQS.    BAND WIDTH + 1 =   94
 STRESS PERIOD=  1 TIMESTEP=618 LAYER=  1 ZONE=  2 ACTIVE CELLS= 8815 NUMBER OF EQUATIONS=    8815
 
 SOLVING FOR HEAD 

 NO OUTPUT CONTROL FOR STRESS PERIOD    1   TIME STEP  619
 SOLVING FOR ZETA FOR LAYER     1 ZONE     2

    4339 UPPER PART EQS.      4333 LOWER PART EQS.    BAND WIDTH + 1 =   92
 STRESS PERIOD=  1 TIMESTEP=619 LAYER=  1 ZONE=  2 ACTIVE CELLS= 8672 NUMBER OF EQUATIONS=    8672
 
 SOLVING FOR HEAD 

 NO OUTPUT CONTROL FOR STRESS PERIOD    1   TIME STEP  620
 SOLVING FOR ZETA FOR LAYER     1 ZONE     2

    4403 UPPER PART EQS.      4413 LOWER PART EQS.    BAND WIDTH + 1 =   95
 STRESS PERIOD=  1 TIMESTEP=620 LAYER=  1 ZONE=  2 ACTIVE CELLS= 8816 NUMBER OF EQUATIONS=    8816
 
 SOLVING FOR HEAD 

 NO OUTPUT CONTROL FOR STRESS PERIOD    1   TIME STEP  621
 SOLVING FOR ZETA FOR LAYER     1 ZONE     2

    4343 UPPER PART EQS.      4338 LOWER PART EQS.    BAND WIDTH + 1 =   92
 STRESS PERIOD=  1 TIMESTEP=621 LAYER=  1 ZONE=  2 ACTIVE CELLS= 8681 NUMBER OF EQUATIONS=    8681
 
 SOLVING FOR HEAD 

 NO OUTPUT CONTROL FOR STRESS PERIOD    1   TIME STEP  622
 SOLVING FOR ZETA FOR LAYER     1 ZONE     2

    4399 UPPER PART EQS.      4410 LOWER PART EQS.    BAND WIDTH + 1 =   95
 STRESS PERIOD=  1 TIMESTEP=622 LAYER=  1 ZONE=  2 ACTIVE CELLS= 8809 NUMBER OF EQUATIONS=    8809
 
 SOLVING FOR HEAD 

 NO OUTPUT CONTROL FOR STRESS PERIOD    1   TIME STEP  623
 SOLVING FOR ZETA FOR LAYER     1 ZONE     2

    4345 UPPER PART EQS.      4339 LOWER PART EQS.    BAND WIDTH + 1 =   92
 STRESS PERIOD=  1 TIMESTEP=623 LAYER=  1 ZONE=  2 ACTIVE CELLS= 8684 NUMBER OF EQUATIONS=    8684
 
 SOLVING FOR HEAD 

 NO OUTPUT CONTROL FOR STRESS PERIOD    1   TIME STEP  624
 SOLVING FOR ZETA FOR LAYER     1 ZONE     2

    4400 UPPER PART EQS.      4405 LOWER PART EQS.    BAND WIDTH + 1 =   94
 STRESS PERIOD=  1 TIMESTEP=624 LAYER=  1 ZONE=  2 ACTIVE CELLS= 8805 NUMBER OF EQUATIONS=    8805
 
 SOLVING FOR HEAD 

 NO OUTPUT CONTROL FOR STRESS PERIOD    1   TIME STEP  625
 SOLVING FOR ZETA FOR LAYER     1 ZONE     2

    4344 UPPER PART EQS.      4337 LOWER PART EQS.    BAND WIDTH + 1 =   92
 STRESS PERIOD=  1 TIMESTEP=625 LAYER=  1 ZONE=  2 ACTIVE CELLS= 8681 NUMBER OF EQUATIONS=    8681
 
 SOLVING FOR HEAD 

 NO OUTPUT CONTROL FOR STRESS PERIOD    1   TIME STEP  626
 SOLVING FOR ZETA FOR LAYER     1 ZONE     2

    4396 UPPER PART EQS.      4406 LOWER PART EQS.    BAND WIDTH + 1 =   94
 STRESS PERIOD=  1 TIMESTEP=626 LAYER=  1 ZONE=  2 ACTIVE CELLS= 8802 NUMBER OF EQUATIONS=    8802
 
 SOLVING FOR HEAD 

 NO OUTPUT CONTROL FOR STRESS PERIOD    1   TIME STEP  627
 SOLVING FOR ZETA FOR LAYER     1 ZONE     2

    4343 UPPER PART EQS.      4340 LOWER PART EQS.    BAND WIDTH + 1 =   92
 STRESS PERIOD=  1 TIMESTEP=627 LAYER=  1 ZONE=  2 ACTIVE CELLS= 8683 NUMBER OF EQUATIONS=    8683
 
 SOLVING FOR HEAD 

 NO OUTPUT CONTROL FOR STRESS PERIOD    1   TIME STEP  628
 SOLVING FOR ZETA FOR LAYER     1 ZONE     2

    4394 UPPER PART EQS.      4405 LOWER PART EQS.    BAND WIDTH + 1 =   95
 STRESS PERIOD=  1 TIMESTEP=628 LAYER=  1 ZONE=  2 ACTIVE CELLS= 8799 NUMBER OF EQUATIONS=    8799
 
 SOLVING FOR HEAD 

 NO OUTPUT CONTROL FOR STRESS PERIOD    1   TIME STEP  629
 SOLVING FOR ZETA FOR LAYER     1 ZONE     2

    4344 UPPER PART EQS.      4338 LOWER PART EQS.    BAND WIDTH + 1 =   92
 STRESS PERIOD=  1 TIMESTEP=629 LAYER=  1 ZONE=  2 ACTIVE CELLS= 8682 NUMBER OF EQUATIONS=    8682
 
 SOLVING FOR HEAD 

 NO OUTPUT CONTROL FOR STRESS PERIOD    1   TIME STEP  630
 SOLVING FOR ZETA FOR LAYER     1 ZONE     2

    4396 UPPER PART EQS.      4408 LOWER PART EQS.    BAND WIDTH + 1 =   96
 STRESS PERIOD=  1 TIMESTEP=630 LAYER=  1 ZONE=  2 ACTIVE CELLS= 8804 NUMBER OF EQUATIONS=    8804
 
 SOLVING FOR HEAD 

 NO OUTPUT CONTROL FOR STRESS PERIOD    1   TIME STEP  631
 SOLVING FOR ZETA FOR LAYER     1 ZONE     2

    4341 UPPER PART EQS.      4338 LOWER PART EQS.    BAND WIDTH + 1 =   92
 STRESS PERIOD=  1 TIMESTEP=631 LAYER=  1 ZONE=  2 ACTIVE CELLS= 8679 NUMBER OF EQUATIONS=    8679
 
 SOLVING FOR HEAD 

 NO OUTPUT CONTROL FOR STRESS PERIOD    1   TIME STEP  632
 SOLVING FOR ZETA FOR LAYER     1 ZONE     2

    4402 UPPER PART EQS.      4407 LOWER PART EQS.    BAND WIDTH + 1 =   95
 STRESS PERIOD=  1 TIMESTEP=632 LAYER=  1 ZONE=  2 ACTIVE CELLS= 8809 NUMBER OF EQUATIONS=    8809
 
 SOLVING FOR HEAD 

 NO OUTPUT CONTROL FOR STRESS PERIOD    1   TIME STEP  633
 SOLVING FOR ZETA FOR LAYER     1 ZONE     2

    4337 UPPER PART EQS.      4338 LOWER PART EQS.    BAND WIDTH + 1 =   92
 STRESS PERIOD=  1 TIMESTEP=633 LAYER=  1 ZONE=  2 ACTIVE CELLS= 8675 NUMBER OF EQUATIONS=    8675
 
 SOLVING FOR HEAD 

 NO OUTPUT CONTROL FOR STRESS PERIOD    1   TIME STEP  634
 SOLVING FOR ZETA FOR LAYER     1 ZONE     2

    4401 UPPER PART EQS.      4409 LOWER PART EQS.    BAND WIDTH + 1 =   96
 STRESS PERIOD=  1 TIMESTEP=634 LAYER=  1 ZONE=  2 ACTIVE CELLS= 8810 NUMBER OF EQUATIONS=    8810
 
 SOLVING FOR HEAD 

 NO OUTPUT CONTROL FOR STRESS PERIOD    1   TIME STEP  635
 SOLVING FOR ZETA FOR LAYER     1 ZONE     2

    4339 UPPER PART EQS.      4339 LOWER PART EQS.    BAND WIDTH + 1 =   93
 STRESS PERIOD=  1 TIMESTEP=635 LAYER=  1 ZONE=  2 ACTIVE CELLS= 8678 NUMBER OF EQUATIONS=    8678
 
 SOLVING FOR HEAD 

 NO OUTPUT CONTROL FOR STRESS PERIOD    1   TIME STEP  636
 SOLVING FOR ZETA FOR LAYER     1 ZONE     2

    4402 UPPER PART EQS.      4411 LOWER PART EQS.    BAND WIDTH + 1 =   96
 STRESS PERIOD=  1 TIMESTEP=636 LAYER=  1 ZONE=  2 ACTIVE CELLS= 8813 NUMBER OF EQUATIONS=    8813
 
 SOLVING FOR HEAD 

 NO OUTPUT CONTROL FOR STRESS PERIOD    1   TIME STEP  637
 SOLVING FOR ZETA FOR LAYER     1 ZONE     2

    4338 UPPER PART EQS.      4337 LOWER PART EQS.    BAND WIDTH + 1 =   92
 STRESS PERIOD=  1 TIMESTEP=637 LAYER=  1 ZONE=  2 ACTIVE CELLS= 8675 NUMBER OF EQUATIONS=    8675
 
 SOLVING FOR HEAD 

 NO OUTPUT CONTROL FOR STRESS PERIOD    1   TIME STEP  638
 SOLVING FOR ZETA FOR LAYER     1 ZONE     2

    4401 UPPER PART EQS.      4412 LOWER PART EQS.    BAND WIDTH + 1 =   97
 STRESS PERIOD=  1 TIMESTEP=638 LAYER=  1 ZONE=  2 ACTIVE CELLS= 8813 NUMBER OF EQUATIONS=    8813
 
 SOLVING FOR HEAD 

 NO OUTPUT CONTROL FOR STRESS PERIOD    1   TIME STEP  639
 SOLVING FOR ZETA FOR LAYER     1 ZONE     2

    4340 UPPER PART EQS.      4336 LOWER PART EQS.    BAND WIDTH + 1 =   93
 STRESS PERIOD=  1 TIMESTEP=639 LAYER=  1 ZONE=  2 ACTIVE CELLS= 8676 NUMBER OF EQUATIONS=    8676
 
 SOLVING FOR HEAD 

 NO OUTPUT CONTROL FOR STRESS PERIOD    1   TIME STEP  640
 SOLVING FOR ZETA FOR LAYER     1 ZONE     2

    4401 UPPER PART EQS.      4410 LOWER PART EQS.    BAND WIDTH + 1 =   95
 STRESS PERIOD=  1 TIMESTEP=640 LAYER=  1 ZONE=  2 ACTIVE CELLS= 8811 NUMBER OF EQUATIONS=    8811
 
 SOLVING FOR HEAD 

 NO OUTPUT CONTROL FOR STRESS PERIOD    1   TIME STEP  641
 SOLVING FOR ZETA FOR LAYER     1 ZONE     2

    4340 UPPER PART EQS.      4339 LOWER PART EQS.    BAND WIDTH + 1 =   93
 STRESS PERIOD=  1 TIMESTEP=641 LAYER=  1 ZONE=  2 ACTIVE CELLS= 8679 NUMBER OF EQUATIONS=    8679
 
 SOLVING FOR HEAD 

 NO OUTPUT CONTROL FOR STRESS PERIOD    1   TIME STEP  642
 SOLVING FOR ZETA FOR LAYER     1 ZONE     2

    4402 UPPER PART EQS.      4408 LOWER PART EQS.    BAND WIDTH + 1 =   96
 STRESS PERIOD=  1 TIMESTEP=642 LAYER=  1 ZONE=  2 ACTIVE CELLS= 8810 NUMBER OF EQUATIONS=    8810
 
 SOLVING FOR HEAD 

 NO OUTPUT CONTROL FOR STRESS PERIOD    1   TIME STEP  643
 SOLVING FOR ZETA FOR LAYER     1 ZONE     2

    4343 UPPER PART EQS.      4341 LOWER PART EQS.    BAND WIDTH + 1 =   93
 STRESS PERIOD=  1 TIMESTEP=643 LAYER=  1 ZONE=  2 ACTIVE CELLS= 8684 NUMBER OF EQUATIONS=    8684
 
 SOLVING FOR HEAD 

 NO OUTPUT CONTROL FOR STRESS PERIOD    1   TIME STEP  644
 SOLVING FOR ZETA FOR LAYER     1 ZONE     2

    4401 UPPER PART EQS.      4409 LOWER PART EQS.    BAND WIDTH + 1 =   95
 STRESS PERIOD=  1 TIMESTEP=644 LAYER=  1 ZONE=  2 ACTIVE CELLS= 8810 NUMBER OF EQUATIONS=    8810
 
 SOLVING FOR HEAD 

 NO OUTPUT CONTROL FOR STRESS PERIOD    1   TIME STEP  645
 SOLVING FOR ZETA FOR LAYER     1 ZONE     2

    4345 UPPER PART EQS.      4342 LOWER PART EQS.    BAND WIDTH + 1 =   93
 STRESS PERIOD=  1 TIMESTEP=645 LAYER=  1 ZONE=  2 ACTIVE CELLS= 8687 NUMBER OF EQUATIONS=    8687
 
 SOLVING FOR HEAD 

 NO OUTPUT CONTROL FOR STRESS PERIOD    1   TIME STEP  646
 SOLVING FOR ZETA FOR LAYER     1 ZONE     2

    4405 UPPER PART EQS.      4408 LOWER PART EQS.    BAND WIDTH + 1 =   94
 STRESS PERIOD=  1 TIMESTEP=646 LAYER=  1 ZONE=  2 ACTIVE CELLS= 8813 NUMBER OF EQUATIONS=    8813
 
 SOLVING FOR HEAD 

 NO OUTPUT CONTROL FOR STRESS PERIOD    1   TIME STEP  647
 SOLVING FOR ZETA FOR LAYER     1 ZONE     2

    4346 UPPER PART EQS.      4346 LOWER PART EQS.    BAND WIDTH + 1 =   93
 STRESS PERIOD=  1 TIMESTEP=647 LAYER=  1 ZONE=  2 ACTIVE CELLS= 8692 NUMBER OF EQUATIONS=    8692
 
 SOLVING FOR HEAD 

 NO OUTPUT CONTROL FOR STRESS PERIOD    1   TIME STEP  648
 SOLVING FOR ZETA FOR LAYER     1 ZONE     2

    4406 UPPER PART EQS.      4408 LOWER PART EQS.    BAND WIDTH + 1 =   94
 STRESS PERIOD=  1 TIMESTEP=648 LAYER=  1 ZONE=  2 ACTIVE CELLS= 8814 NUMBER OF EQUATIONS=    8814
 
 SOLVING FOR HEAD 

 NO OUTPUT CONTROL FOR STRESS PERIOD    1   TIME STEP  649
 SOLVING FOR ZETA FOR LAYER     1 ZONE     2

    4347 UPPER PART EQS.      4344 LOWER PART EQS.    BAND WIDTH + 1 =   92
 STRESS PERIOD=  1 TIMESTEP=649 LAYER=  1 ZONE=  2 ACTIVE CELLS= 8691 NUMBER OF EQUATIONS=    8691
 
 SOLVING FOR HEAD 

 NO OUTPUT CONTROL FOR STRESS PERIOD    1   TIME STEP  650
 SOLVING FOR ZETA FOR LAYER     1 ZONE     2

    4406 UPPER PART EQS.      4403 LOWER PART EQS.    BAND WIDTH + 1 =   94
 STRESS PERIOD=  1 TIMESTEP=650 LAYER=  1 ZONE=  2 ACTIVE CELLS= 8809 NUMBER OF EQUATIONS=    8809
 
 SOLVING FOR HEAD 

 NO OUTPUT CONTROL FOR STRESS PERIOD    1   TIME STEP  651
 SOLVING FOR ZETA FOR LAYER     1 ZONE     2

    4355 UPPER PART EQS.      4343 LOWER PART EQS.    BAND WIDTH + 1 =   93
 STRESS PERIOD=  1 TIMESTEP=651 LAYER=  1 ZONE=  2 ACTIVE CELLS= 8698 NUMBER OF EQUATIONS=    8698
 
 SOLVING FOR HEAD 

 NO OUTPUT CONTROL FOR STRESS PERIOD    1   TIME STEP  652
 SOLVING FOR ZETA FOR LAYER     1 ZONE     2

    4406 UPPER PART EQS.      4407 LOWER PART EQS.    BAND WIDTH + 1 =   94
 STRESS PERIOD=  1 TIMESTEP=652 LAYER=  1 ZONE=  2 ACTIVE CELLS= 8813 NUMBER OF EQUATIONS=    8813
 
 SOLVING FOR HEAD 

 NO OUTPUT CONTROL FOR STRESS PERIOD    1   TIME STEP  653
 SOLVING FOR ZETA FOR LAYER     1 ZONE     2

    4357 UPPER PART EQS.      4342 LOWER PART EQS.    BAND WIDTH + 1 =   93
 STRESS PERIOD=  1 TIMESTEP=653 LAYER=  1 ZONE=  2 ACTIVE CELLS= 8699 NUMBER OF EQUATIONS=    8699
 
 SOLVING FOR HEAD 

 NO OUTPUT CONTROL FOR STRESS PERIOD    1   TIME STEP  654
 SOLVING FOR ZETA FOR LAYER     1 ZONE     2

    4407 UPPER PART EQS.      4412 LOWER PART EQS.    BAND WIDTH + 1 =   94
 STRESS PERIOD=  1 TIMESTEP=654 LAYER=  1 ZONE=  2 ACTIVE CELLS= 8819 NUMBER OF EQUATIONS=    8819
 
 SOLVING FOR HEAD 

 NO OUTPUT CONTROL FOR STRESS PERIOD    1   TIME STEP  655
 SOLVING FOR ZETA FOR LAYER     1 ZONE     2

    4355 UPPER PART EQS.      4344 LOWER PART EQS.    BAND WIDTH + 1 =   93
 STRESS PERIOD=  1 TIMESTEP=655 LAYER=  1 ZONE=  2 ACTIVE CELLS= 8699 NUMBER OF EQUATIONS=    8699
 
 SOLVING FOR HEAD 

 NO OUTPUT CONTROL FOR STRESS PERIOD    1   TIME STEP  656
 SOLVING FOR ZETA FOR LAYER     1 ZONE     2

    4408 UPPER PART EQS.      4413 LOWER PART EQS.    BAND WIDTH + 1 =   95
 STRESS PERIOD=  1 TIMESTEP=656 LAYER=  1 ZONE=  2 ACTIVE CELLS= 8821 NUMBER OF EQUATIONS=    8821
 
 SOLVING FOR HEAD 

 NO OUTPUT CONTROL FOR STRESS PERIOD    1   TIME STEP  657
 SOLVING FOR ZETA FOR LAYER     1 ZONE     2

    4354 UPPER PART EQS.      4346 LOWER PART EQS.    BAND WIDTH + 1 =   93
 STRESS PERIOD=  1 TIMESTEP=657 LAYER=  1 ZONE=  2 ACTIVE CELLS= 8700 NUMBER OF EQUATIONS=    8700
 
 SOLVING FOR HEAD 

 NO OUTPUT CONTROL FOR STRESS PERIOD    1   TIME STEP  658
 SOLVING FOR ZETA FOR LAYER     1 ZONE     2

    4410 UPPER PART EQS.      4411 LOWER PART EQS.    BAND WIDTH + 1 =   95
 STRESS PERIOD=  1 TIMESTEP=658 LAYER=  1 ZONE=  2 ACTIVE CELLS= 8821 NUMBER OF EQUATIONS=    8821
 
 SOLVING FOR HEAD 

 NO OUTPUT CONTROL FOR STRESS PERIOD    1   TIME STEP  659
 SOLVING FOR ZETA FOR LAYER     1 ZONE     2

    4357 UPPER PART EQS.      4342 LOWER PART EQS.    BAND WIDTH + 1 =   93
 STRESS PERIOD=  1 TIMESTEP=659 LAYER=  1 ZONE=  2 ACTIVE CELLS= 8699 NUMBER OF EQUATIONS=    8699
 
 SOLVING FOR HEAD 

 NO OUTPUT CONTROL FOR STRESS PERIOD    1   TIME STEP  660
 SOLVING FOR ZETA FOR LAYER     1 ZONE     2

    4414 UPPER PART EQS.      4414 LOWER PART EQS.    BAND WIDTH + 1 =   95
 STRESS PERIOD=  1 TIMESTEP=660 LAYER=  1 ZONE=  2 ACTIVE CELLS= 8828 NUMBER OF EQUATIONS=    8828
 
 SOLVING FOR HEAD 

 NO OUTPUT CONTROL FOR STRESS PERIOD    1   TIME STEP  661
 SOLVING FOR ZETA FOR LAYER     1 ZONE     2

    4355 UPPER PART EQS.      4342 LOWER PART EQS.    BAND WIDTH + 1 =   94
 STRESS PERIOD=  1 TIMESTEP=661 LAYER=  1 ZONE=  2 ACTIVE CELLS= 8697 NUMBER OF EQUATIONS=    8697
 
 SOLVING FOR HEAD 

 NO OUTPUT CONTROL FOR STRESS PERIOD    1   TIME STEP  662
 SOLVING FOR ZETA FOR LAYER     1 ZONE     2

    4413 UPPER PART EQS.      4417 LOWER PART EQS.    BAND WIDTH + 1 =   95
 STRESS PERIOD=  1 TIMESTEP=662 LAYER=  1 ZONE=  2 ACTIVE CELLS= 8830 NUMBER OF EQUATIONS=    8830
 
 SOLVING FOR HEAD 

 NO OUTPUT CONTROL FOR STRESS PERIOD    1   TIME STEP  663
 SOLVING FOR ZETA FOR LAYER     1 ZONE     2

    4355 UPPER PART EQS.      4343 LOWER PART EQS.    BAND WIDTH + 1 =   94
 STRESS PERIOD=  1 TIMESTEP=663 LAYER=  1 ZONE=  2 ACTIVE CELLS= 8698 NUMBER OF EQUATIONS=    8698
 
 SOLVING FOR HEAD 

 NO OUTPUT CONTROL FOR STRESS PERIOD    1   TIME STEP  664
 SOLVING FOR ZETA FOR LAYER     1 ZONE     2

    4411 UPPER PART EQS.      4413 LOWER PART EQS.    BAND WIDTH + 1 =   95
 STRESS PERIOD=  1 TIMESTEP=664 LAYER=  1 ZONE=  2 ACTIVE CELLS= 8824 NUMBER OF EQUATIONS=    8824
 
 SOLVING FOR HEAD 

 NO OUTPUT CONTROL FOR STRESS PERIOD    1   TIME STEP  665
 SOLVING FOR ZETA FOR LAYER     1 ZONE     2

    4355 UPPER PART EQS.      4343 LOWER PART EQS.    BAND WIDTH + 1 =   94
 STRESS PERIOD=  1 TIMESTEP=665 LAYER=  1 ZONE=  2 ACTIVE CELLS= 8698 NUMBER OF EQUATIONS=    8698
 
 SOLVING FOR HEAD 

 NO OUTPUT CONTROL FOR STRESS PERIOD    1   TIME STEP  666
 SOLVING FOR ZETA FOR LAYER     1 ZONE     2

    4411 UPPER PART EQS.      4414 LOWER PART EQS.    BAND WIDTH + 1 =   95
 STRESS PERIOD=  1 TIMESTEP=666 LAYER=  1 ZONE=  2 ACTIVE CELLS= 8825 NUMBER OF EQUATIONS=    8825
 
 SOLVING FOR HEAD 

 NO OUTPUT CONTROL FOR STRESS PERIOD    1   TIME STEP  667
 SOLVING FOR ZETA FOR LAYER     1 ZONE     2

    4352 UPPER PART EQS.      4342 LOWER PART EQS.    BAND WIDTH + 1 =   95
 STRESS PERIOD=  1 TIMESTEP=667 LAYER=  1 ZONE=  2 ACTIVE CELLS= 8694 NUMBER OF EQUATIONS=    8694
 
 SOLVING FOR HEAD 

 NO OUTPUT CONTROL FOR STRESS PERIOD    1   TIME STEP  668
 SOLVING FOR ZETA FOR LAYER     1 ZONE     2

    4416 UPPER PART EQS.      4416 LOWER PART EQS.    BAND WIDTH + 1 =   95
 STRESS PERIOD=  1 TIMESTEP=668 LAYER=  1 ZONE=  2 ACTIVE CELLS= 8832 NUMBER OF EQUATIONS=    8832
 
 SOLVING FOR HEAD 

 NO OUTPUT CONTROL FOR STRESS PERIOD    1   TIME STEP  669
 SOLVING FOR ZETA FOR LAYER     1 ZONE     2

    4356 UPPER PART EQS.      4342 LOWER PART EQS.    BAND WIDTH + 1 =   94
 STRESS PERIOD=  1 TIMESTEP=669 LAYER=  1 ZONE=  2 ACTIVE CELLS= 8698 NUMBER OF EQUATIONS=    8698
 
 SOLVING FOR HEAD 

 NO OUTPUT CONTROL FOR STRESS PERIOD    1   TIME STEP  670
 SOLVING FOR ZETA FOR LAYER     1 ZONE     2

    4413 UPPER PART EQS.      4413 LOWER PART EQS.    BAND WIDTH + 1 =   95
 STRESS PERIOD=  1 TIMESTEP=670 LAYER=  1 ZONE=  2 ACTIVE CELLS= 8826 NUMBER OF EQUATIONS=    8826
 
 SOLVING FOR HEAD 

 NO OUTPUT CONTROL FOR STRESS PERIOD    1   TIME STEP  671
 SOLVING FOR ZETA FOR LAYER     1 ZONE     2

    4356 UPPER PART EQS.      4341 LOWER PART EQS.    BAND WIDTH + 1 =   94
 STRESS PERIOD=  1 TIMESTEP=671 LAYER=  1 ZONE=  2 ACTIVE CELLS= 8697 NUMBER OF EQUATIONS=    8697
 
 SOLVING FOR HEAD 

 NO OUTPUT CONTROL FOR STRESS PERIOD    1   TIME STEP  672
 SOLVING FOR ZETA FOR LAYER     1 ZONE     2

    4414 UPPER PART EQS.      4415 LOWER PART EQS.    BAND WIDTH + 1 =   95
 STRESS PERIOD=  1 TIMESTEP=672 LAYER=  1 ZONE=  2 ACTIVE CELLS= 8829 NUMBER OF EQUATIONS=    8829
 
 SOLVING FOR HEAD 

 NO OUTPUT CONTROL FOR STRESS PERIOD    1   TIME STEP  673
 SOLVING FOR ZETA FOR LAYER     1 ZONE     2

    4359 UPPER PART EQS.      4342 LOWER PART EQS.    BAND WIDTH + 1 =   94
 STRESS PERIOD=  1 TIMESTEP=673 LAYER=  1 ZONE=  2 ACTIVE CELLS= 8701 NUMBER OF EQUATIONS=    8701
 
 SOLVING FOR HEAD 

 NO OUTPUT CONTROL FOR STRESS PERIOD    1   TIME STEP  674
 SOLVING FOR ZETA FOR LAYER     1 ZONE     2

    4409 UPPER PART EQS.      4413 LOWER PART EQS.    BAND WIDTH + 1 =   96
 STRESS PERIOD=  1 TIMESTEP=674 LAYER=  1 ZONE=  2 ACTIVE CELLS= 8822 NUMBER OF EQUATIONS=    8822
 
 SOLVING FOR HEAD 

 NO OUTPUT CONTROL FOR STRESS PERIOD    1   TIME STEP  675
 SOLVING FOR ZETA FOR LAYER     1 ZONE     2

    4360 UPPER PART EQS.      4342 LOWER PART EQS.    BAND WIDTH + 1 =   94
 STRESS PERIOD=  1 TIMESTEP=675 LAYER=  1 ZONE=  2 ACTIVE CELLS= 8702 NUMBER OF EQUATIONS=    8702
 
 SOLVING FOR HEAD 

 NO OUTPUT CONTROL FOR STRESS PERIOD    1   TIME STEP  676
 SOLVING FOR ZETA FOR LAYER     1 ZONE     2

    4412 UPPER PART EQS.      4415 LOWER PART EQS.    BAND WIDTH + 1 =   96
 STRESS PERIOD=  1 TIMESTEP=676 LAYER=  1 ZONE=  2 ACTIVE CELLS= 8827 NUMBER OF EQUATIONS=    8827
 
 SOLVING FOR HEAD 

 NO OUTPUT CONTROL FOR STRESS PERIOD    1   TIME STEP  677
 SOLVING FOR ZETA FOR LAYER     1 ZONE     2

    4362 UPPER PART EQS.      4342 LOWER PART EQS.    BAND WIDTH + 1 =   93
 STRESS PERIOD=  1 TIMESTEP=677 LAYER=  1 ZONE=  2 ACTIVE CELLS= 8704 NUMBER OF EQUATIONS=    8704
 
 SOLVING FOR HEAD 

 NO OUTPUT CONTROL FOR STRESS PERIOD    1   TIME STEP  678
 SOLVING FOR ZETA FOR LAYER     1 ZONE     2

    4412 UPPER PART EQS.      4415 LOWER PART EQS.    BAND WIDTH + 1 =   95
 STRESS PERIOD=  1 TIMESTEP=678 LAYER=  1 ZONE=  2 ACTIVE CELLS= 8827 NUMBER OF EQUATIONS=    8827
 
 SOLVING FOR HEAD 

 NO OUTPUT CONTROL FOR STRESS PERIOD    1   TIME STEP  679
 SOLVING FOR ZETA FOR LAYER     1 ZONE     2

    4366 UPPER PART EQS.      4343 LOWER PART EQS.    BAND WIDTH + 1 =   93
 STRESS PERIOD=  1 TIMESTEP=679 LAYER=  1 ZONE=  2 ACTIVE CELLS= 8709 NUMBER OF EQUATIONS=    8709
 
 SOLVING FOR HEAD 

 NO OUTPUT CONTROL FOR STRESS PERIOD    1   TIME STEP  680
 SOLVING FOR ZETA FOR LAYER     1 ZONE     2

    4411 UPPER PART EQS.      4414 LOWER PART EQS.    BAND WIDTH + 1 =   96
 STRESS PERIOD=  1 TIMESTEP=680 LAYER=  1 ZONE=  2 ACTIVE CELLS= 8825 NUMBER OF EQUATIONS=    8825
 
 SOLVING FOR HEAD 

 NO OUTPUT CONTROL FOR STRESS PERIOD    1   TIME STEP  681
 SOLVING FOR ZETA FOR LAYER     1 ZONE     2

    4363 UPPER PART EQS.      4347 LOWER PART EQS.    BAND WIDTH + 1 =   94
 STRESS PERIOD=  1 TIMESTEP=681 LAYER=  1 ZONE=  2 ACTIVE CELLS= 8710 NUMBER OF EQUATIONS=    8710
 
 SOLVING FOR HEAD 

 NO OUTPUT CONTROL FOR STRESS PERIOD    1   TIME STEP  682
 SOLVING FOR ZETA FOR LAYER     1 ZONE     2

    4414 UPPER PART EQS.      4414 LOWER PART EQS.    BAND WIDTH + 1 =   96
 STRESS PERIOD=  1 TIMESTEP=682 LAYER=  1 ZONE=  2 ACTIVE CELLS= 8828 NUMBER OF EQUATIONS=    8828
 
 SOLVING FOR HEAD 

 NO OUTPUT CONTROL FOR STRESS PERIOD    1   TIME STEP  683
 SOLVING FOR ZETA FOR LAYER     1 ZONE     2

    4363 UPPER PART EQS.      4344 LOWER PART EQS.    BAND WIDTH + 1 =   94
 STRESS PERIOD=  1 TIMESTEP=683 LAYER=  1 ZONE=  2 ACTIVE CELLS= 8707 NUMBER OF EQUATIONS=    8707
 
 SOLVING FOR HEAD 

 NO OUTPUT CONTROL FOR STRESS PERIOD    1   TIME STEP  684
 SOLVING FOR ZETA FOR LAYER     1 ZONE     2

    4410 UPPER PART EQS.      4415 LOWER PART EQS.    BAND WIDTH + 1 =   95
 STRESS PERIOD=  1 TIMESTEP=684 LAYER=  1 ZONE=  2 ACTIVE CELLS= 8825 NUMBER OF EQUATIONS=    8825
 
 SOLVING FOR HEAD 

 NO OUTPUT CONTROL FOR STRESS PERIOD    1   TIME STEP  685
 SOLVING FOR ZETA FOR LAYER     1 ZONE     2

    4362 UPPER PART EQS.      4347 LOWER PART EQS.    BAND WIDTH + 1 =   93
 STRESS PERIOD=  1 TIMESTEP=685 LAYER=  1 ZONE=  2 ACTIVE CELLS= 8709 NUMBER OF EQUATIONS=    8709
 
 SOLVING FOR HEAD 

 NO OUTPUT CONTROL FOR STRESS PERIOD    1   TIME STEP  686
 SOLVING FOR ZETA FOR LAYER     1 ZONE     2

    4413 UPPER PART EQS.      4415 LOWER PART EQS.    BAND WIDTH + 1 =   96
 STRESS PERIOD=  1 TIMESTEP=686 LAYER=  1 ZONE=  2 ACTIVE CELLS= 8828 NUMBER OF EQUATIONS=    8828
 
 SOLVING FOR HEAD 

 NO OUTPUT CONTROL FOR STRESS PERIOD    1   TIME STEP  687
 SOLVING FOR ZETA FOR LAYER     1 ZONE     2

    4364 UPPER PART EQS.      4342 LOWER PART EQS.    BAND WIDTH + 1 =   94
 STRESS PERIOD=  1 TIMESTEP=687 LAYER=  1 ZONE=  2 ACTIVE CELLS= 8706 NUMBER OF EQUATIONS=    8706
 
 SOLVING FOR HEAD 

 NO OUTPUT CONTROL FOR STRESS PERIOD    1   TIME STEP  688
 SOLVING FOR ZETA FOR LAYER     1 ZONE     2

    4414 UPPER PART EQS.      4422 LOWER PART EQS.    BAND WIDTH + 1 =   97
 STRESS PERIOD=  1 TIMESTEP=688 LAYER=  1 ZONE=  2 ACTIVE CELLS= 8836 NUMBER OF EQUATIONS=    8836
 
 SOLVING FOR HEAD 

 NO OUTPUT CONTROL FOR STRESS PERIOD    1   TIME STEP  689
 SOLVING FOR ZETA FOR LAYER     1 ZONE     2

    4363 UPPER PART EQS.      4347 LOWER PART EQS.    BAND WIDTH + 1 =   93
 STRESS PERIOD=  1 TIMESTEP=689 LAYER=  1 ZONE=  2 ACTIVE CELLS= 8710 NUMBER OF EQUATIONS=    8710
 
 SOLVING FOR HEAD 

 NO OUTPUT CONTROL FOR STRESS PERIOD    1   TIME STEP  690
 SOLVING FOR ZETA FOR LAYER     1 ZONE     2

    4413 UPPER PART EQS.      4419 LOWER PART EQS.    BAND WIDTH + 1 =   95
 STRESS PERIOD=  1 TIMESTEP=690 LAYER=  1 ZONE=  2 ACTIVE CELLS= 8832 NUMBER OF EQUATIONS=    8832
 
 SOLVING FOR HEAD 

 NO OUTPUT CONTROL FOR STRESS PERIOD    1   TIME STEP  691
 SOLVING FOR ZETA FOR LAYER     1 ZONE     2

    4365 UPPER PART EQS.      4342 LOWER PART EQS.    BAND WIDTH + 1 =   93
 STRESS PERIOD=  1 TIMESTEP=691 LAYER=  1 ZONE=  2 ACTIVE CELLS= 8707 NUMBER OF EQUATIONS=    8707
 
 SOLVING FOR HEAD 

 NO OUTPUT CONTROL FOR STRESS PERIOD    1   TIME STEP  692
 SOLVING FOR ZETA FOR LAYER     1 ZONE     2

    4409 UPPER PART EQS.      4423 LOWER PART EQS.    BAND WIDTH + 1 =   96
 STRESS PERIOD=  1 TIMESTEP=692 LAYER=  1 ZONE=  2 ACTIVE CELLS= 8832 NUMBER OF EQUATIONS=    8832
 
 SOLVING FOR HEAD 

 NO OUTPUT CONTROL FOR STRESS PERIOD    1   TIME STEP  693
 SOLVING FOR ZETA FOR LAYER     1 ZONE     2

    4363 UPPER PART EQS.      4343 LOWER PART EQS.    BAND WIDTH + 1 =   94
 STRESS PERIOD=  1 TIMESTEP=693 LAYER=  1 ZONE=  2 ACTIVE CELLS= 8706 NUMBER OF EQUATIONS=    8706
 
 SOLVING FOR HEAD 

 NO OUTPUT CONTROL FOR STRESS PERIOD    1   TIME STEP  694
 SOLVING FOR ZETA FOR LAYER     1 ZONE     2

    4409 UPPER PART EQS.      4419 LOWER PART EQS.    BAND WIDTH + 1 =   96
 STRESS PERIOD=  1 TIMESTEP=694 LAYER=  1 ZONE=  2 ACTIVE CELLS= 8828 NUMBER OF EQUATIONS=    8828
 
 SOLVING FOR HEAD 

 NO OUTPUT CONTROL FOR STRESS PERIOD    1   TIME STEP  695
 SOLVING FOR ZETA FOR LAYER     1 ZONE     2

    4364 UPPER PART EQS.      4348 LOWER PART EQS.    BAND WIDTH + 1 =   93
 STRESS PERIOD=  1 TIMESTEP=695 LAYER=  1 ZONE=  2 ACTIVE CELLS= 8712 NUMBER OF EQUATIONS=    8712
 
 SOLVING FOR HEAD 

 NO OUTPUT CONTROL FOR STRESS PERIOD    1   TIME STEP  696
 SOLVING FOR ZETA FOR LAYER     1 ZONE     2

    4407 UPPER PART EQS.      4422 LOWER PART EQS.    BAND WIDTH + 1 =   95
 STRESS PERIOD=  1 TIMESTEP=696 LAYER=  1 ZONE=  2 ACTIVE CELLS= 8829 NUMBER OF EQUATIONS=    8829
 
 SOLVING FOR HEAD 

 NO OUTPUT CONTROL FOR STRESS PERIOD    1   TIME STEP  697
 SOLVING FOR ZETA FOR LAYER     1 ZONE     2

    4364 UPPER PART EQS.      4343 LOWER PART EQS.    BAND WIDTH + 1 =   92
 STRESS PERIOD=  1 TIMESTEP=697 LAYER=  1 ZONE=  2 ACTIVE CELLS= 8707 NUMBER OF EQUATIONS=    8707
 
 SOLVING FOR HEAD 

 NO OUTPUT CONTROL FOR STRESS PERIOD    1   TIME STEP  698
 SOLVING FOR ZETA FOR LAYER     1 ZONE     2

    4410 UPPER PART EQS.      4421 LOWER PART EQS.    BAND WIDTH + 1 =   95
 STRESS PERIOD=  1 TIMESTEP=698 LAYER=  1 ZONE=  2 ACTIVE CELLS= 8831 NUMBER OF EQUATIONS=    8831
 
 SOLVING FOR HEAD 

 NO OUTPUT CONTROL FOR STRESS PERIOD    1   TIME STEP  699
 SOLVING FOR ZETA FOR LAYER     1 ZONE     2

    4357 UPPER PART EQS.      4344 LOWER PART EQS.    BAND WIDTH + 1 =   92
 STRESS PERIOD=  1 TIMESTEP=699 LAYER=  1 ZONE=  2 ACTIVE CELLS= 8701 NUMBER OF EQUATIONS=    8701
 
 SOLVING FOR HEAD 

 NO OUTPUT CONTROL FOR STRESS PERIOD    1   TIME STEP  700
 SOLVING FOR ZETA FOR LAYER     1 ZONE     2

    4410 UPPER PART EQS.      4422 LOWER PART EQS.    BAND WIDTH + 1 =   95
 STRESS PERIOD=  1 TIMESTEP=700 LAYER=  1 ZONE=  2 ACTIVE CELLS= 8832 NUMBER OF EQUATIONS=    8832
 
 SOLVING FOR HEAD 

 NO OUTPUT CONTROL FOR STRESS PERIOD    1   TIME STEP  701
 SOLVING FOR ZETA FOR LAYER     1 ZONE     2

    4361 UPPER PART EQS.      4346 LOWER PART EQS.    BAND WIDTH + 1 =   92
 STRESS PERIOD=  1 TIMESTEP=701 LAYER=  1 ZONE=  2 ACTIVE CELLS= 8707 NUMBER OF EQUATIONS=    8707
 
 SOLVING FOR HEAD 

 NO OUTPUT CONTROL FOR STRESS PERIOD    1   TIME STEP  702
 SOLVING FOR ZETA FOR LAYER     1 ZONE     2

    4407 UPPER PART EQS.      4424 LOWER PART EQS.    BAND WIDTH + 1 =   95
 STRESS PERIOD=  1 TIMESTEP=702 LAYER=  1 ZONE=  2 ACTIVE CELLS= 8831 NUMBER OF EQUATIONS=    8831
 
 SOLVING FOR HEAD 

 NO OUTPUT CONTROL FOR STRESS PERIOD    1   TIME STEP  703
 SOLVING FOR ZETA FOR LAYER     1 ZONE     2

    4363 UPPER PART EQS.      4346 LOWER PART EQS.    BAND WIDTH + 1 =   92
 STRESS PERIOD=  1 TIMESTEP=703 LAYER=  1 ZONE=  2 ACTIVE CELLS= 8709 NUMBER OF EQUATIONS=    8709
 
 SOLVING FOR HEAD 

 NO OUTPUT CONTROL FOR STRESS PERIOD    1   TIME STEP  704
 SOLVING FOR ZETA FOR LAYER     1 ZONE     2

    4409 UPPER PART EQS.      4423 LOWER PART EQS.    BAND WIDTH + 1 =   94
 STRESS PERIOD=  1 TIMESTEP=704 LAYER=  1 ZONE=  2 ACTIVE CELLS= 8832 NUMBER OF EQUATIONS=    8832
 
 SOLVING FOR HEAD 

 NO OUTPUT CONTROL FOR STRESS PERIOD    1   TIME STEP  705
 SOLVING FOR ZETA FOR LAYER     1 ZONE     2

    4362 UPPER PART EQS.      4347 LOWER PART EQS.    BAND WIDTH + 1 =   92
 STRESS PERIOD=  1 TIMESTEP=705 LAYER=  1 ZONE=  2 ACTIVE CELLS= 8709 NUMBER OF EQUATIONS=    8709
 
 SOLVING FOR HEAD 

 NO OUTPUT CONTROL FOR STRESS PERIOD    1   TIME STEP  706
 SOLVING FOR ZETA FOR LAYER     1 ZONE     2

    4410 UPPER PART EQS.      4422 LOWER PART EQS.    BAND WIDTH + 1 =   94
 STRESS PERIOD=  1 TIMESTEP=706 LAYER=  1 ZONE=  2 ACTIVE CELLS= 8832 NUMBER OF EQUATIONS=    8832
 
 SOLVING FOR HEAD 

 NO OUTPUT CONTROL FOR STRESS PERIOD    1   TIME STEP  707
 SOLVING FOR ZETA FOR LAYER     1 ZONE     2

    4359 UPPER PART EQS.      4346 LOWER PART EQS.    BAND WIDTH + 1 =   91
 STRESS PERIOD=  1 TIMESTEP=707 LAYER=  1 ZONE=  2 ACTIVE CELLS= 8705 NUMBER OF EQUATIONS=    8705
 
 SOLVING FOR HEAD 

 NO OUTPUT CONTROL FOR STRESS PERIOD    1   TIME STEP  708
 SOLVING FOR ZETA FOR LAYER     1 ZONE     2

    4412 UPPER PART EQS.      4426 LOWER PART EQS.    BAND WIDTH + 1 =   95
 STRESS PERIOD=  1 TIMESTEP=708 LAYER=  1 ZONE=  2 ACTIVE CELLS= 8838 NUMBER OF EQUATIONS=    8838
 
 SOLVING FOR HEAD 

 NO OUTPUT CONTROL FOR STRESS PERIOD    1   TIME STEP  709
 SOLVING FOR ZETA FOR LAYER     1 ZONE     2

    4357 UPPER PART EQS.      4346 LOWER PART EQS.    BAND WIDTH + 1 =   91
 STRESS PERIOD=  1 TIMESTEP=709 LAYER=  1 ZONE=  2 ACTIVE CELLS= 8703 NUMBER OF EQUATIONS=    8703
 
 SOLVING FOR HEAD 

 NO OUTPUT CONTROL FOR STRESS PERIOD    1   TIME STEP  710
 SOLVING FOR ZETA FOR LAYER     1 ZONE     2

    4412 UPPER PART EQS.      4421 LOWER PART EQS.    BAND WIDTH + 1 =   93
 STRESS PERIOD=  1 TIMESTEP=710 LAYER=  1 ZONE=  2 ACTIVE CELLS= 8833 NUMBER OF EQUATIONS=    8833
 
 SOLVING FOR HEAD 

 NO OUTPUT CONTROL FOR STRESS PERIOD    1   TIME STEP  711
 SOLVING FOR ZETA FOR LAYER     1 ZONE     2

    4355 UPPER PART EQS.      4344 LOWER PART EQS.    BAND WIDTH + 1 =   91
 STRESS PERIOD=  1 TIMESTEP=711 LAYER=  1 ZONE=  2 ACTIVE CELLS= 8699 NUMBER OF EQUATIONS=    8699
 
 SOLVING FOR HEAD 

 NO OUTPUT CONTROL FOR STRESS PERIOD    1   TIME STEP  712
 SOLVING FOR ZETA FOR LAYER     1 ZONE     2

    4409 UPPER PART EQS.      4428 LOWER PART EQS.    BAND WIDTH + 1 =   94
 STRESS PERIOD=  1 TIMESTEP=712 LAYER=  1 ZONE=  2 ACTIVE CELLS= 8837 NUMBER OF EQUATIONS=    8837
 
 SOLVING FOR HEAD 

 NO OUTPUT CONTROL FOR STRESS PERIOD    1   TIME STEP  713
 SOLVING FOR ZETA FOR LAYER     1 ZONE     2

    4352 UPPER PART EQS.      4344 LOWER PART EQS.    BAND WIDTH + 1 =   91
 STRESS PERIOD=  1 TIMESTEP=713 LAYER=  1 ZONE=  2 ACTIVE CELLS= 8696 NUMBER OF EQUATIONS=    8696
 
 SOLVING FOR HEAD 

 NO OUTPUT CONTROL FOR STRESS PERIOD    1   TIME STEP  714
 SOLVING FOR ZETA FOR LAYER     1 ZONE     2

    4411 UPPER PART EQS.      4427 LOWER PART EQS.    BAND WIDTH + 1 =   94
 STRESS PERIOD=  1 TIMESTEP=714 LAYER=  1 ZONE=  2 ACTIVE CELLS= 8838 NUMBER OF EQUATIONS=    8838
 
 SOLVING FOR HEAD 

 NO OUTPUT CONTROL FOR STRESS PERIOD    1   TIME STEP  715
 SOLVING FOR ZETA FOR LAYER     1 ZONE     2

    4359 UPPER PART EQS.      4340 LOWER PART EQS.    BAND WIDTH + 1 =   92
 STRESS PERIOD=  1 TIMESTEP=715 LAYER=  1 ZONE=  2 ACTIVE CELLS= 8699 NUMBER OF EQUATIONS=    8699
 
 SOLVING FOR HEAD 

 NO OUTPUT CONTROL FOR STRESS PERIOD    1   TIME STEP  716
 SOLVING FOR ZETA FOR LAYER     1 ZONE     2

    4406 UPPER PART EQS.      4428 LOWER PART EQS.    BAND WIDTH + 1 =   95
 STRESS PERIOD=  1 TIMESTEP=716 LAYER=  1 ZONE=  2 ACTIVE CELLS= 8834 NUMBER OF EQUATIONS=    8834
 
 SOLVING FOR HEAD 

 NO OUTPUT CONTROL FOR STRESS PERIOD    1   TIME STEP  717
 SOLVING FOR ZETA FOR LAYER     1 ZONE     2

    4358 UPPER PART EQS.      4346 LOWER PART EQS.    BAND WIDTH + 1 =   91
 STRESS PERIOD=  1 TIMESTEP=717 LAYER=  1 ZONE=  2 ACTIVE CELLS= 8704 NUMBER OF EQUATIONS=    8704
 
 SOLVING FOR HEAD 

 NO OUTPUT CONTROL FOR STRESS PERIOD    1   TIME STEP  718
 SOLVING FOR ZETA FOR LAYER     1 ZONE     2

    4410 UPPER PART EQS.      4427 LOWER PART EQS.    BAND WIDTH + 1 =   96
 STRESS PERIOD=  1 TIMESTEP=718 LAYER=  1 ZONE=  2 ACTIVE CELLS= 8837 NUMBER OF EQUATIONS=    8837
 
 SOLVING FOR HEAD 

 NO OUTPUT CONTROL FOR STRESS PERIOD    1   TIME STEP  719
 SOLVING FOR ZETA FOR LAYER     1 ZONE     2

    4358 UPPER PART EQS.      4346 LOWER PART EQS.    BAND WIDTH + 1 =   92
 STRESS PERIOD=  1 TIMESTEP=719 LAYER=  1 ZONE=  2 ACTIVE CELLS= 8704 NUMBER OF EQUATIONS=    8704
 
 SOLVING FOR HEAD 

 NO OUTPUT CONTROL FOR STRESS PERIOD    1   TIME STEP  720
 SOLVING FOR ZETA FOR LAYER     1 ZONE     2

    4410 UPPER PART EQS.      4429 LOWER PART EQS.    BAND WIDTH + 1 =   96
 STRESS PERIOD=  1 TIMESTEP=720 LAYER=  1 ZONE=  2 ACTIVE CELLS= 8839 NUMBER OF EQUATIONS=    8839
 
 SOLVING FOR HEAD 

 NO OUTPUT CONTROL FOR STRESS PERIOD    1   TIME STEP  721
 SOLVING FOR ZETA FOR LAYER     1 ZONE     2

    4360 UPPER PART EQS.      4345 LOWER PART EQS.    BAND WIDTH + 1 =   94
 STRESS PERIOD=  1 TIMESTEP=721 LAYER=  1 ZONE=  2 ACTIVE CELLS= 8705 NUMBER OF EQUATIONS=    8705
 
 SOLVING FOR HEAD 

 NO OUTPUT CONTROL FOR STRESS PERIOD    1   TIME STEP  722
 SOLVING FOR ZETA FOR LAYER     1 ZONE     2

    4409 UPPER PART EQS.      4427 LOWER PART EQS.    BAND WIDTH + 1 =   95
 STRESS PERIOD=  1 TIMESTEP=722 LAYER=  1 ZONE=  2 ACTIVE CELLS= 8836 NUMBER OF EQUATIONS=    8836
 
 SOLVING FOR HEAD 

 NO OUTPUT CONTROL FOR STRESS PERIOD    1   TIME STEP  723
 SOLVING FOR ZETA FOR LAYER     1 ZONE     2

    4356 UPPER PART EQS.      4349 LOWER PART EQS.    BAND WIDTH + 1 =   93
 STRESS PERIOD=  1 TIMESTEP=723 LAYER=  1 ZONE=  2 ACTIVE CELLS= 8705 NUMBER OF EQUATIONS=    8705
 
 SOLVING FOR HEAD 

 NO OUTPUT CONTROL FOR STRESS PERIOD    1   TIME STEP  724
 SOLVING FOR ZETA FOR LAYER     1 ZONE     2

    4411 UPPER PART EQS.      4425 LOWER PART EQS.    BAND WIDTH + 1 =   95
 STRESS PERIOD=  1 TIMESTEP=724 LAYER=  1 ZONE=  2 ACTIVE CELLS= 8836 NUMBER OF EQUATIONS=    8836
 
 SOLVING FOR HEAD 

 NO OUTPUT CONTROL FOR STRESS PERIOD    1   TIME STEP  725
 SOLVING FOR ZETA FOR LAYER     1 ZONE     2

    4358 UPPER PART EQS.      4344 LOWER PART EQS.    BAND WIDTH + 1 =   93
 STRESS PERIOD=  1 TIMESTEP=725 LAYER=  1 ZONE=  2 ACTIVE CELLS= 8702 NUMBER OF EQUATIONS=    8702
 
 SOLVING FOR HEAD 

 NO OUTPUT CONTROL FOR STRESS PERIOD    1   TIME STEP  726
 SOLVING FOR ZETA FOR LAYER     1 ZONE     2

    4408 UPPER PART EQS.      4426 LOWER PART EQS.    BAND WIDTH + 1 =   95
 STRESS PERIOD=  1 TIMESTEP=726 LAYER=  1 ZONE=  2 ACTIVE CELLS= 8834 NUMBER OF EQUATIONS=    8834
 
 SOLVING FOR HEAD 

 NO OUTPUT CONTROL FOR STRESS PERIOD    1   TIME STEP  727
 SOLVING FOR ZETA FOR LAYER     1 ZONE     2

    4357 UPPER PART EQS.      4351 LOWER PART EQS.    BAND WIDTH + 1 =   94
 STRESS PERIOD=  1 TIMESTEP=727 LAYER=  1 ZONE=  2 ACTIVE CELLS= 8708 NUMBER OF EQUATIONS=    8708
 
 SOLVING FOR HEAD 

 NO OUTPUT CONTROL FOR STRESS PERIOD    1   TIME STEP  728
 SOLVING FOR ZETA FOR LAYER     1 ZONE     2

    4409 UPPER PART EQS.      4427 LOWER PART EQS.    BAND WIDTH + 1 =   95
 STRESS PERIOD=  1 TIMESTEP=728 LAYER=  1 ZONE=  2 ACTIVE CELLS= 8836 NUMBER OF EQUATIONS=    8836
 
 SOLVING FOR HEAD 

 NO OUTPUT CONTROL FOR STRESS PERIOD    1   TIME STEP  729
 SOLVING FOR ZETA FOR LAYER     1 ZONE     2

    4357 UPPER PART EQS.      4348 LOWER PART EQS.    BAND WIDTH + 1 =   93
 STRESS PERIOD=  1 TIMESTEP=729 LAYER=  1 ZONE=  2 ACTIVE CELLS= 8705 NUMBER OF EQUATIONS=    8705
 
 SOLVING FOR HEAD 

 NO OUTPUT CONTROL FOR STRESS PERIOD    1   TIME STEP  730
 SOLVING FOR ZETA FOR LAYER     1 ZONE     2

    4412 UPPER PART EQS.      4424 LOWER PART EQS.    BAND WIDTH + 1 =   95
 STRESS PERIOD=  1 TIMESTEP=730 LAYER=  1 ZONE=  2 ACTIVE CELLS= 8836 NUMBER OF EQUATIONS=    8836
 
 SOLVING FOR HEAD 

 NO OUTPUT CONTROL FOR STRESS PERIOD    1   TIME STEP  731
 SOLVING FOR ZETA FOR LAYER     1 ZONE     2

    4356 UPPER PART EQS.      4351 LOWER PART EQS.    BAND WIDTH + 1 =   93
 STRESS PERIOD=  1 TIMESTEP=731 LAYER=  1 ZONE=  2 ACTIVE CELLS= 8707 NUMBER OF EQUATIONS=    8707
 
 SOLVING FOR HEAD 

 NO OUTPUT CONTROL FOR STRESS PERIOD    1   TIME STEP  732
 SOLVING FOR ZETA FOR LAYER     1 ZONE     2

    4411 UPPER PART EQS.      4420 LOWER PART EQS.    BAND WIDTH + 1 =   95
 STRESS PERIOD=  1 TIMESTEP=732 LAYER=  1 ZONE=  2 ACTIVE CELLS= 8831 NUMBER OF EQUATIONS=    8831
 
 SOLVING FOR HEAD 

 NO OUTPUT CONTROL FOR STRESS PERIOD    1   TIME STEP  733
 SOLVING FOR ZETA FOR LAYER     1 ZONE     2

    4359 UPPER PART EQS.      4352 LOWER PART EQS.    BAND WIDTH + 1 =   95
 STRESS PERIOD=  1 TIMESTEP=733 LAYER=  1 ZONE=  2 ACTIVE CELLS= 8711 NUMBER OF EQUATIONS=    8711
 
 SOLVING FOR HEAD 

 NO OUTPUT CONTROL FOR STRESS PERIOD    1   TIME STEP  734
 SOLVING FOR ZETA FOR LAYER     1 ZONE     2

    4413 UPPER PART EQS.      4422 LOWER PART EQS.    BAND WIDTH + 1 =   95
 STRESS PERIOD=  1 TIMESTEP=734 LAYER=  1 ZONE=  2 ACTIVE CELLS= 8835 NUMBER OF EQUATIONS=    8835
 
 SOLVING FOR HEAD 

 NO OUTPUT CONTROL FOR STRESS PERIOD    1   TIME STEP  735
 SOLVING FOR ZETA FOR LAYER     1 ZONE     2

    4358 UPPER PART EQS.      4346 LOWER PART EQS.    BAND WIDTH + 1 =   96
 STRESS PERIOD=  1 TIMESTEP=735 LAYER=  1 ZONE=  2 ACTIVE CELLS= 8704 NUMBER OF EQUATIONS=    8704
 
 SOLVING FOR HEAD 

 NO OUTPUT CONTROL FOR STRESS PERIOD    1   TIME STEP  736
 SOLVING FOR ZETA FOR LAYER     1 ZONE     2

    4415 UPPER PART EQS.      4426 LOWER PART EQS.    BAND WIDTH + 1 =   96
 STRESS PERIOD=  1 TIMESTEP=736 LAYER=  1 ZONE=  2 ACTIVE CELLS= 8841 NUMBER OF EQUATIONS=    8841
 
 SOLVING FOR HEAD 

 NO OUTPUT CONTROL FOR STRESS PERIOD    1   TIME STEP  737
 SOLVING FOR ZETA FOR LAYER     1 ZONE     2

    4359 UPPER PART EQS.      4348 LOWER PART EQS.    BAND WIDTH + 1 =   95
 STRESS PERIOD=  1 TIMESTEP=737 LAYER=  1 ZONE=  2 ACTIVE CELLS= 8707 NUMBER OF EQUATIONS=    8707
 
 SOLVING FOR HEAD 

 NO OUTPUT CONTROL FOR STRESS PERIOD    1   TIME STEP  738
 SOLVING FOR ZETA FOR LAYER     1 ZONE     2

    4413 UPPER PART EQS.      4422 LOWER PART EQS.    BAND WIDTH + 1 =   96
 STRESS PERIOD=  1 TIMESTEP=738 LAYER=  1 ZONE=  2 ACTIVE CELLS= 8835 NUMBER OF EQUATIONS=    8835
 
 SOLVING FOR HEAD 

 NO OUTPUT CONTROL FOR STRESS PERIOD    1   TIME STEP  739
 SOLVING FOR ZETA FOR LAYER     1 ZONE     2

    4356 UPPER PART EQS.      4347 LOWER PART EQS.    BAND WIDTH + 1 =   93
 STRESS PERIOD=  1 TIMESTEP=739 LAYER=  1 ZONE=  2 ACTIVE CELLS= 8703 NUMBER OF EQUATIONS=    8703
 
 SOLVING FOR HEAD 

 NO OUTPUT CONTROL FOR STRESS PERIOD    1   TIME STEP  740
 SOLVING FOR ZETA FOR LAYER     1 ZONE     2

    4415 UPPER PART EQS.      4424 LOWER PART EQS.    BAND WIDTH + 1 =   96
 STRESS PERIOD=  1 TIMESTEP=740 LAYER=  1 ZONE=  2 ACTIVE CELLS= 8839 NUMBER OF EQUATIONS=    8839
 
 SOLVING FOR HEAD 

 NO OUTPUT CONTROL FOR STRESS PERIOD    1   TIME STEP  741
 SOLVING FOR ZETA FOR LAYER     1 ZONE     2

    4356 UPPER PART EQS.      4349 LOWER PART EQS.    BAND WIDTH + 1 =   93
 STRESS PERIOD=  1 TIMESTEP=741 LAYER=  1 ZONE=  2 ACTIVE CELLS= 8705 NUMBER OF EQUATIONS=    8705
 
 SOLVING FOR HEAD 

 NO OUTPUT CONTROL FOR STRESS PERIOD    1   TIME STEP  742
 SOLVING FOR ZETA FOR LAYER     1 ZONE     2

    4407 UPPER PART EQS.      4423 LOWER PART EQS.    BAND WIDTH + 1 =   95
 STRESS PERIOD=  1 TIMESTEP=742 LAYER=  1 ZONE=  2 ACTIVE CELLS= 8830 NUMBER OF EQUATIONS=    8830
 
 SOLVING FOR HEAD 

 NO OUTPUT CONTROL FOR STRESS PERIOD    1   TIME STEP  743
 SOLVING FOR ZETA FOR LAYER     1 ZONE     2

    4363 UPPER PART EQS.      4350 LOWER PART EQS.    BAND WIDTH + 1 =   93
 STRESS PERIOD=  1 TIMESTEP=743 LAYER=  1 ZONE=  2 ACTIVE CELLS= 8713 NUMBER OF EQUATIONS=    8713
 
 SOLVING FOR HEAD 

 NO OUTPUT CONTROL FOR STRESS PERIOD    1   TIME STEP  744
 SOLVING FOR ZETA FOR LAYER     1 ZONE     2

    4407 UPPER PART EQS.      4419 LOWER PART EQS.    BAND WIDTH + 1 =   95
 STRESS PERIOD=  1 TIMESTEP=744 LAYER=  1 ZONE=  2 ACTIVE CELLS= 8826 NUMBER OF EQUATIONS=    8826
 
 SOLVING FOR HEAD 

 NO OUTPUT CONTROL FOR STRESS PERIOD    1   TIME STEP  745
 SOLVING FOR ZETA FOR LAYER     1 ZONE     2

    4359 UPPER PART EQS.      4352 LOWER PART EQS.    BAND WIDTH + 1 =   93
 STRESS PERIOD=  1 TIMESTEP=745 LAYER=  1 ZONE=  2 ACTIVE CELLS= 8711 NUMBER OF EQUATIONS=    8711
 
 SOLVING FOR HEAD 

 NO OUTPUT CONTROL FOR STRESS PERIOD    1   TIME STEP  746
 SOLVING FOR ZETA FOR LAYER     1 ZONE     2

    4413 UPPER PART EQS.      4417 LOWER PART EQS.    BAND WIDTH + 1 =   95
 STRESS PERIOD=  1 TIMESTEP=746 LAYER=  1 ZONE=  2 ACTIVE CELLS= 8830 NUMBER OF EQUATIONS=    8830
 
 SOLVING FOR HEAD 

 NO OUTPUT CONTROL FOR STRESS PERIOD    1   TIME STEP  747
 SOLVING FOR ZETA FOR LAYER     1 ZONE     2

    4363 UPPER PART EQS.      4352 LOWER PART EQS.    BAND WIDTH + 1 =   93
 STRESS PERIOD=  1 TIMESTEP=747 LAYER=  1 ZONE=  2 ACTIVE CELLS= 8715 NUMBER OF EQUATIONS=    8715
 
 SOLVING FOR HEAD 

 NO OUTPUT CONTROL FOR STRESS PERIOD    1   TIME STEP  748
 SOLVING FOR ZETA FOR LAYER     1 ZONE     2

    4413 UPPER PART EQS.      4418 LOWER PART EQS.    BAND WIDTH + 1 =   95
 STRESS PERIOD=  1 TIMESTEP=748 LAYER=  1 ZONE=  2 ACTIVE CELLS= 8831 NUMBER OF EQUATIONS=    8831
 
 SOLVING FOR HEAD 

 NO OUTPUT CONTROL FOR STRESS PERIOD    1   TIME STEP  749
 SOLVING FOR ZETA FOR LAYER     1 ZONE     2

    4358 UPPER PART EQS.      4355 LOWER PART EQS.    BAND WIDTH + 1 =   92
 STRESS PERIOD=  1 TIMESTEP=749 LAYER=  1 ZONE=  2 ACTIVE CELLS= 8713 NUMBER OF EQUATIONS=    8713
 
 SOLVING FOR HEAD 

 NO OUTPUT CONTROL FOR STRESS PERIOD    1   TIME STEP  750
 SOLVING FOR ZETA FOR LAYER     1 ZONE     2

    4411 UPPER PART EQS.      4414 LOWER PART EQS.    BAND WIDTH + 1 =   95
 STRESS PERIOD=  1 TIMESTEP=750 LAYER=  1 ZONE=  2 ACTIVE CELLS= 8825 NUMBER OF EQUATIONS=    8825
 
 SOLVING FOR HEAD 

 NO OUTPUT CONTROL FOR STRESS PERIOD    1   TIME STEP  751
 SOLVING FOR ZETA FOR LAYER     1 ZONE     2

    4359 UPPER PART EQS.      4356 LOWER PART EQS.    BAND WIDTH + 1 =   92
 STRESS PERIOD=  1 TIMESTEP=751 LAYER=  1 ZONE=  2 ACTIVE CELLS= 8715 NUMBER OF EQUATIONS=    8715
 
 SOLVING FOR HEAD 

 NO OUTPUT CONTROL FOR STRESS PERIOD    1   TIME STEP  752
 SOLVING FOR ZETA FOR LAYER     1 ZONE     2

    4415 UPPER PART EQS.      4412 LOWER PART EQS.    BAND WIDTH + 1 =   94
 STRESS PERIOD=  1 TIMESTEP=752 LAYER=  1 ZONE=  2 ACTIVE CELLS= 8827 NUMBER OF EQUATIONS=    8827
 
 SOLVING FOR HEAD 

 NO OUTPUT CONTROL FOR STRESS PERIOD    1   TIME STEP  753
 SOLVING FOR ZETA FOR LAYER     1 ZONE     2

    4357 UPPER PART EQS.      4358 LOWER PART EQS.    BAND WIDTH + 1 =   92
 STRESS PERIOD=  1 TIMESTEP=753 LAYER=  1 ZONE=  2 ACTIVE CELLS= 8715 NUMBER OF EQUATIONS=    8715
 
 SOLVING FOR HEAD 

 NO OUTPUT CONTROL FOR STRESS PERIOD    1   TIME STEP  754
 SOLVING FOR ZETA FOR LAYER     1 ZONE     2

    4412 UPPER PART EQS.      4414 LOWER PART EQS.    BAND WIDTH + 1 =   94
 STRESS PERIOD=  1 TIMESTEP=754 LAYER=  1 ZONE=  2 ACTIVE CELLS= 8826 NUMBER OF EQUATIONS=    8826
 
 SOLVING FOR HEAD 

 NO OUTPUT CONTROL FOR STRESS PERIOD    1   TIME STEP  755
 SOLVING FOR ZETA FOR LAYER     1 ZONE     2

    4360 UPPER PART EQS.      4360 LOWER PART EQS.    BAND WIDTH + 1 =   91
 STRESS PERIOD=  1 TIMESTEP=755 LAYER=  1 ZONE=  2 ACTIVE CELLS= 8720 NUMBER OF EQUATIONS=    8720
 
 SOLVING FOR HEAD 

 NO OUTPUT CONTROL FOR STRESS PERIOD    1   TIME STEP  756
 SOLVING FOR ZETA FOR LAYER     1 ZONE     2

    4413 UPPER PART EQS.      4416 LOWER PART EQS.    BAND WIDTH + 1 =   93
 STRESS PERIOD=  1 TIMESTEP=756 LAYER=  1 ZONE=  2 ACTIVE CELLS= 8829 NUMBER OF EQUATIONS=    8829
 
 SOLVING FOR HEAD 

 NO OUTPUT CONTROL FOR STRESS PERIOD    1   TIME STEP  757
 SOLVING FOR ZETA FOR LAYER     1 ZONE     2

    4358 UPPER PART EQS.      4357 LOWER PART EQS.    BAND WIDTH + 1 =   92
 STRESS PERIOD=  1 TIMESTEP=757 LAYER=  1 ZONE=  2 ACTIVE CELLS= 8715 NUMBER OF EQUATIONS=    8715
 
 SOLVING FOR HEAD 

 NO OUTPUT CONTROL FOR STRESS PERIOD    1   TIME STEP  758
 SOLVING FOR ZETA FOR LAYER     1 ZONE     2

    4414 UPPER PART EQS.      4413 LOWER PART EQS.    BAND WIDTH + 1 =   95
 STRESS PERIOD=  1 TIMESTEP=758 LAYER=  1 ZONE=  2 ACTIVE CELLS= 8827 NUMBER OF EQUATIONS=    8827
 
 SOLVING FOR HEAD 

 NO OUTPUT CONTROL FOR STRESS PERIOD    1   TIME STEP  759
 SOLVING FOR ZETA FOR LAYER     1 ZONE     2

    4357 UPPER PART EQS.      4357 LOWER PART EQS.    BAND WIDTH + 1 =   91
 STRESS PERIOD=  1 TIMESTEP=759 LAYER=  1 ZONE=  2 ACTIVE CELLS= 8714 NUMBER OF EQUATIONS=    8714
 
 SOLVING FOR HEAD 

 NO OUTPUT CONTROL FOR STRESS PERIOD    1   TIME STEP  760
 SOLVING FOR ZETA FOR LAYER     1 ZONE     2

    4412 UPPER PART EQS.      4409 LOWER PART EQS.    BAND WIDTH + 1 =   94
 STRESS PERIOD=  1 TIMESTEP=760 LAYER=  1 ZONE=  2 ACTIVE CELLS= 8821 NUMBER OF EQUATIONS=    8821
 
 SOLVING FOR HEAD 

 NO OUTPUT CONTROL FOR STRESS PERIOD    1   TIME STEP  761
 SOLVING FOR ZETA FOR LAYER     1 ZONE     2

    4361 UPPER PART EQS.      4359 LOWER PART EQS.    BAND WIDTH + 1 =   93
 STRESS PERIOD=  1 TIMESTEP=761 LAYER=  1 ZONE=  2 ACTIVE CELLS= 8720 NUMBER OF EQUATIONS=    8720
 
 SOLVING FOR HEAD 

 NO OUTPUT CONTROL FOR STRESS PERIOD    1   TIME STEP  762
 SOLVING FOR ZETA FOR LAYER     1 ZONE     2

    4412 UPPER PART EQS.      4413 LOWER PART EQS.    BAND WIDTH + 1 =   95
 STRESS PERIOD=  1 TIMESTEP=762 LAYER=  1 ZONE=  2 ACTIVE CELLS= 8825 NUMBER OF EQUATIONS=    8825
 
 SOLVING FOR HEAD 

 NO OUTPUT CONTROL FOR STRESS PERIOD    1   TIME STEP  763
 SOLVING FOR ZETA FOR LAYER     1 ZONE     2

    4359 UPPER PART EQS.      4350 LOWER PART EQS.    BAND WIDTH + 1 =   91
 STRESS PERIOD=  1 TIMESTEP=763 LAYER=  1 ZONE=  2 ACTIVE CELLS= 8709 NUMBER OF EQUATIONS=    8709
 
 SOLVING FOR HEAD 

 NO OUTPUT CONTROL FOR STRESS PERIOD    1   TIME STEP  764
 SOLVING FOR ZETA FOR LAYER     1 ZONE     2

    4416 UPPER PART EQS.      4416 LOWER PART EQS.    BAND WIDTH + 1 =   95
 STRESS PERIOD=  1 TIMESTEP=764 LAYER=  1 ZONE=  2 ACTIVE CELLS= 8832 NUMBER OF EQUATIONS=    8832
 
 SOLVING FOR HEAD 

 NO OUTPUT CONTROL FOR STRESS PERIOD    1   TIME STEP  765
 SOLVING FOR ZETA FOR LAYER     1 ZONE     2

    4357 UPPER PART EQS.      4351 LOWER PART EQS.    BAND WIDTH + 1 =   91
 STRESS PERIOD=  1 TIMESTEP=765 LAYER=  1 ZONE=  2 ACTIVE CELLS= 8708 NUMBER OF EQUATIONS=    8708
 
 SOLVING FOR HEAD 

 NO OUTPUT CONTROL FOR STRESS PERIOD    1   TIME STEP  766
 SOLVING FOR ZETA FOR LAYER     1 ZONE     2

    4415 UPPER PART EQS.      4414 LOWER PART EQS.    BAND WIDTH + 1 =   95
 STRESS PERIOD=  1 TIMESTEP=766 LAYER=  1 ZONE=  2 ACTIVE CELLS= 8829 NUMBER OF EQUATIONS=    8829
 
 SOLVING FOR HEAD 

 NO OUTPUT CONTROL FOR STRESS PERIOD    1   TIME STEP  767
 SOLVING FOR ZETA FOR LAYER     1 ZONE     2

    4360 UPPER PART EQS.      4354 LOWER PART EQS.    BAND WIDTH + 1 =   92
 STRESS PERIOD=  1 TIMESTEP=767 LAYER=  1 ZONE=  2 ACTIVE CELLS= 8714 NUMBER OF EQUATIONS=    8714
 
 SOLVING FOR HEAD 

 NO OUTPUT CONTROL FOR STRESS PERIOD    1   TIME STEP  768
 SOLVING FOR ZETA FOR LAYER     1 ZONE     2

    4419 UPPER PART EQS.      4414 LOWER PART EQS.    BAND WIDTH + 1 =   95
 STRESS PERIOD=  1 TIMESTEP=768 LAYER=  1 ZONE=  2 ACTIVE CELLS= 8833 NUMBER OF EQUATIONS=    8833
 
 SOLVING FOR HEAD 

 NO OUTPUT CONTROL FOR STRESS PERIOD    1   TIME STEP  769
 SOLVING FOR ZETA FOR LAYER     1 ZONE     2

    4355 UPPER PART EQS.      4347 LOWER PART EQS.    BAND WIDTH + 1 =   92
 STRESS PERIOD=  1 TIMESTEP=769 LAYER=  1 ZONE=  2 ACTIVE CELLS= 8702 NUMBER OF EQUATIONS=    8702
 
 SOLVING FOR HEAD 

 NO OUTPUT CONTROL FOR STRESS PERIOD    1   TIME STEP  770
 SOLVING FOR ZETA FOR LAYER     1 ZONE     2

    4421 UPPER PART EQS.      4414 LOWER PART EQS.    BAND WIDTH + 1 =   95
 STRESS PERIOD=  1 TIMESTEP=770 LAYER=  1 ZONE=  2 ACTIVE CELLS= 8835 NUMBER OF EQUATIONS=    8835
 
 SOLVING FOR HEAD 

 NO OUTPUT CONTROL FOR STRESS PERIOD    1   TIME STEP  771
 SOLVING FOR ZETA FOR LAYER     1 ZONE     2

    4356 UPPER PART EQS.      4352 LOWER PART EQS.    BAND WIDTH + 1 =   92
 STRESS PERIOD=  1 TIMESTEP=771 LAYER=  1 ZONE=  2 ACTIVE CELLS= 8708 NUMBER OF EQUATIONS=    8708
 
 SOLVING FOR HEAD 

 NO OUTPUT CONTROL FOR STRESS PERIOD    1   TIME STEP  772
 SOLVING FOR ZETA FOR LAYER     1 ZONE     2

    4415 UPPER PART EQS.      4412 LOWER PART EQS.    BAND WIDTH + 1 =   96
 STRESS PERIOD=  1 TIMESTEP=772 LAYER=  1 ZONE=  2 ACTIVE CELLS= 8827 NUMBER OF EQUATIONS=    8827
 
 SOLVING FOR HEAD 

 NO OUTPUT CONTROL FOR STRESS PERIOD    1   TIME STEP  773
 SOLVING FOR ZETA FOR LAYER     1 ZONE     2

    4354 UPPER PART EQS.      4353 LOWER PART EQS.    BAND WIDTH + 1 =   91
 STRESS PERIOD=  1 TIMESTEP=773 LAYER=  1 ZONE=  2 ACTIVE CELLS= 8707 NUMBER OF EQUATIONS=    8707
 
 SOLVING FOR HEAD 

 NO OUTPUT CONTROL FOR STRESS PERIOD    1   TIME STEP  774
 SOLVING FOR ZETA FOR LAYER     1 ZONE     2

    4418 UPPER PART EQS.      4416 LOWER PART EQS.    BAND WIDTH + 1 =   97
 STRESS PERIOD=  1 TIMESTEP=774 LAYER=  1 ZONE=  2 ACTIVE CELLS= 8834 NUMBER OF EQUATIONS=    8834
 
 SOLVING FOR HEAD 

 NO OUTPUT CONTROL FOR STRESS PERIOD    1   TIME STEP  775
 SOLVING FOR ZETA FOR LAYER     1 ZONE     2

    4352 UPPER PART EQS.      4350 LOWER PART EQS.    BAND WIDTH + 1 =   91
 STRESS PERIOD=  1 TIMESTEP=775 LAYER=  1 ZONE=  2 ACTIVE CELLS= 8702 NUMBER OF EQUATIONS=    8702
 
 SOLVING FOR HEAD 

 NO OUTPUT CONTROL FOR STRESS PERIOD    1   TIME STEP  776
 SOLVING FOR ZETA FOR LAYER     1 ZONE     2

    4421 UPPER PART EQS.      4415 LOWER PART EQS.    BAND WIDTH + 1 =   94
 STRESS PERIOD=  1 TIMESTEP=776 LAYER=  1 ZONE=  2 ACTIVE CELLS= 8836 NUMBER OF EQUATIONS=    8836
 
 SOLVING FOR HEAD 

 NO OUTPUT CONTROL FOR STRESS PERIOD    1   TIME STEP  777
 SOLVING FOR ZETA FOR LAYER     1 ZONE     2

    4360 UPPER PART EQS.      4351 LOWER PART EQS.    BAND WIDTH + 1 =   91
 STRESS PERIOD=  1 TIMESTEP=777 LAYER=  1 ZONE=  2 ACTIVE CELLS= 8711 NUMBER OF EQUATIONS=    8711
 
 SOLVING FOR HEAD 

 NO OUTPUT CONTROL FOR STRESS PERIOD    1   TIME STEP  778
 SOLVING FOR ZETA FOR LAYER     1 ZONE     2

    4413 UPPER PART EQS.      4415 LOWER PART EQS.    BAND WIDTH + 1 =   94
 STRESS PERIOD=  1 TIMESTEP=778 LAYER=  1 ZONE=  2 ACTIVE CELLS= 8828 NUMBER OF EQUATIONS=    8828
 
 SOLVING FOR HEAD 

 NO OUTPUT CONTROL FOR STRESS PERIOD    1   TIME STEP  779
 SOLVING FOR ZETA FOR LAYER     1 ZONE     2

    4362 UPPER PART EQS.      4351 LOWER PART EQS.    BAND WIDTH + 1 =   92
 STRESS PERIOD=  1 TIMESTEP=779 LAYER=  1 ZONE=  2 ACTIVE CELLS= 8713 NUMBER OF EQUATIONS=    8713
 
 SOLVING FOR HEAD 

 NO OUTPUT CONTROL FOR STRESS PERIOD    1   TIME STEP  780
 SOLVING FOR ZETA FOR LAYER     1 ZONE     2

    4416 UPPER PART EQS.      4418 LOWER PART EQS.    BAND WIDTH + 1 =   96
 STRESS PERIOD=  1 TIMESTEP=780 LAYER=  1 ZONE=  2 ACTIVE CELLS= 8834 NUMBER OF EQUATIONS=    8834
 
 SOLVING FOR HEAD 

 NO OUTPUT CONTROL FOR STRESS PERIOD    1   TIME STEP  781
 SOLVING FOR ZETA FOR LAYER     1 ZONE     2

    4357 UPPER PART EQS.      4350 LOWER PART EQS.    BAND WIDTH + 1 =   92
 STRESS PERIOD=  1 TIMESTEP=781 LAYER=  1 ZONE=  2 ACTIVE CELLS= 8707 NUMBER OF EQUATIONS=    8707
 
 SOLVING FOR HEAD 

 NO OUTPUT CONTROL FOR STRESS PERIOD    1   TIME STEP  782
 SOLVING FOR ZETA FOR LAYER     1 ZONE     2

    4417 UPPER PART EQS.      4415 LOWER PART EQS.    BAND WIDTH + 1 =   93
 STRESS PERIOD=  1 TIMESTEP=782 LAYER=  1 ZONE=  2 ACTIVE CELLS= 8832 NUMBER OF EQUATIONS=    8832
 
 SOLVING FOR HEAD 

 NO OUTPUT CONTROL FOR STRESS PERIOD    1   TIME STEP  783
 SOLVING FOR ZETA FOR LAYER     1 ZONE     2

    4356 UPPER PART EQS.      4353 LOWER PART EQS.    BAND WIDTH + 1 =   91
 STRESS PERIOD=  1 TIMESTEP=783 LAYER=  1 ZONE=  2 ACTIVE CELLS= 8709 NUMBER OF EQUATIONS=    8709
 
 SOLVING FOR HEAD 

 NO OUTPUT CONTROL FOR STRESS PERIOD    1   TIME STEP  784
 SOLVING FOR ZETA FOR LAYER     1 ZONE     2

    4415 UPPER PART EQS.      4417 LOWER PART EQS.    BAND WIDTH + 1 =   93
 STRESS PERIOD=  1 TIMESTEP=784 LAYER=  1 ZONE=  2 ACTIVE CELLS= 8832 NUMBER OF EQUATIONS=    8832
 
 SOLVING FOR HEAD 

 NO OUTPUT CONTROL FOR STRESS PERIOD    1   TIME STEP  785
 SOLVING FOR ZETA FOR LAYER     1 ZONE     2

    4355 UPPER PART EQS.      4349 LOWER PART EQS.    BAND WIDTH + 1 =   91
 STRESS PERIOD=  1 TIMESTEP=785 LAYER=  1 ZONE=  2 ACTIVE CELLS= 8704 NUMBER OF EQUATIONS=    8704
 
 SOLVING FOR HEAD 

 NO OUTPUT CONTROL FOR STRESS PERIOD    1   TIME STEP  786
 SOLVING FOR ZETA FOR LAYER     1 ZONE     2

    4418 UPPER PART EQS.      4418 LOWER PART EQS.    BAND WIDTH + 1 =   94
 STRESS PERIOD=  1 TIMESTEP=786 LAYER=  1 ZONE=  2 ACTIVE CELLS= 8836 NUMBER OF EQUATIONS=    8836
 
 SOLVING FOR HEAD 

 NO OUTPUT CONTROL FOR STRESS PERIOD    1   TIME STEP  787
 SOLVING FOR ZETA FOR LAYER     1 ZONE     2

    4352 UPPER PART EQS.      4354 LOWER PART EQS.    BAND WIDTH + 1 =   91
 STRESS PERIOD=  1 TIMESTEP=787 LAYER=  1 ZONE=  2 ACTIVE CELLS= 8706 NUMBER OF EQUATIONS=    8706
 
 SOLVING FOR HEAD 

 NO OUTPUT CONTROL FOR STRESS PERIOD    1   TIME STEP  788
 SOLVING FOR ZETA FOR LAYER     1 ZONE     2

    4412 UPPER PART EQS.      4417 LOWER PART EQS.    BAND WIDTH + 1 =   93
 STRESS PERIOD=  1 TIMESTEP=788 LAYER=  1 ZONE=  2 ACTIVE CELLS= 8829 NUMBER OF EQUATIONS=    8829
 
 SOLVING FOR HEAD 

 NO OUTPUT CONTROL FOR STRESS PERIOD    1   TIME STEP  789
 SOLVING FOR ZETA FOR LAYER     1 ZONE     2

    4360 UPPER PART EQS.      4354 LOWER PART EQS.    BAND WIDTH + 1 =   91
 STRESS PERIOD=  1 TIMESTEP=789 LAYER=  1 ZONE=  2 ACTIVE CELLS= 8714 NUMBER OF EQUATIONS=    8714
 
 SOLVING FOR HEAD 

 NO OUTPUT CONTROL FOR STRESS PERIOD    1   TIME STEP  790
 SOLVING FOR ZETA FOR LAYER     1 ZONE     2

    4412 UPPER PART EQS.      4416 LOWER PART EQS.    BAND WIDTH + 1 =   92
 STRESS PERIOD=  1 TIMESTEP=790 LAYER=  1 ZONE=  2 ACTIVE CELLS= 8828 NUMBER OF EQUATIONS=    8828
 
 SOLVING FOR HEAD 

 NO OUTPUT CONTROL FOR STRESS PERIOD    1   TIME STEP  791
 SOLVING FOR ZETA FOR LAYER     1 ZONE     2

    4356 UPPER PART EQS.      4353 LOWER PART EQS.    BAND WIDTH + 1 =   90
 STRESS PERIOD=  1 TIMESTEP=791 LAYER=  1 ZONE=  2 ACTIVE CELLS= 8709 NUMBER OF EQUATIONS=    8709
 
 SOLVING FOR HEAD 

 NO OUTPUT CONTROL FOR STRESS PERIOD    1   TIME STEP  792
 SOLVING FOR ZETA FOR LAYER     1 ZONE     2

    4419 UPPER PART EQS.      4420 LOWER PART EQS.    BAND WIDTH + 1 =   93
 STRESS PERIOD=  1 TIMESTEP=792 LAYER=  1 ZONE=  2 ACTIVE CELLS= 8839 NUMBER OF EQUATIONS=    8839
 
 SOLVING FOR HEAD 

 NO OUTPUT CONTROL FOR STRESS PERIOD    1   TIME STEP  793
 SOLVING FOR ZETA FOR LAYER     1 ZONE     2

    4353 UPPER PART EQS.      4349 LOWER PART EQS.    BAND WIDTH + 1 =   91
 STRESS PERIOD=  1 TIMESTEP=793 LAYER=  1 ZONE=  2 ACTIVE CELLS= 8702 NUMBER OF EQUATIONS=    8702
 
 SOLVING FOR HEAD 

 NO OUTPUT CONTROL FOR STRESS PERIOD    1   TIME STEP  794
 SOLVING FOR ZETA FOR LAYER     1 ZONE     2

    4420 UPPER PART EQS.      4418 LOWER PART EQS.    BAND WIDTH + 1 =   93
 STRESS PERIOD=  1 TIMESTEP=794 LAYER=  1 ZONE=  2 ACTIVE CELLS= 8838 NUMBER OF EQUATIONS=    8838
 
 SOLVING FOR HEAD 

 NO OUTPUT CONTROL FOR STRESS PERIOD    1   TIME STEP  795
 SOLVING FOR ZETA FOR LAYER     1 ZONE     2

    4353 UPPER PART EQS.      4355 LOWER PART EQS.    BAND WIDTH + 1 =   91
 STRESS PERIOD=  1 TIMESTEP=795 LAYER=  1 ZONE=  2 ACTIVE CELLS= 8708 NUMBER OF EQUATIONS=    8708
 
 SOLVING FOR HEAD 

 NO OUTPUT CONTROL FOR STRESS PERIOD    1   TIME STEP  796
 SOLVING FOR ZETA FOR LAYER     1 ZONE     2

    4417 UPPER PART EQS.      4417 LOWER PART EQS.    BAND WIDTH + 1 =   93
 STRESS PERIOD=  1 TIMESTEP=796 LAYER=  1 ZONE=  2 ACTIVE CELLS= 8834 NUMBER OF EQUATIONS=    8834
 
 SOLVING FOR HEAD 

 NO OUTPUT CONTROL FOR STRESS PERIOD    1   TIME STEP  797
 SOLVING FOR ZETA FOR LAYER     1 ZONE     2

    4354 UPPER PART EQS.      4352 LOWER PART EQS.    BAND WIDTH + 1 =   90
 STRESS PERIOD=  1 TIMESTEP=797 LAYER=  1 ZONE=  2 ACTIVE CELLS= 8706 NUMBER OF EQUATIONS=    8706
 
 SOLVING FOR HEAD 

 NO OUTPUT CONTROL FOR STRESS PERIOD    1   TIME STEP  798
 SOLVING FOR ZETA FOR LAYER     1 ZONE     2

    4419 UPPER PART EQS.      4419 LOWER PART EQS.    BAND WIDTH + 1 =   94
 STRESS PERIOD=  1 TIMESTEP=798 LAYER=  1 ZONE=  2 ACTIVE CELLS= 8838 NUMBER OF EQUATIONS=    8838
 
 SOLVING FOR HEAD 

 NO OUTPUT CONTROL FOR STRESS PERIOD    1   TIME STEP  799
 SOLVING FOR ZETA FOR LAYER     1 ZONE     2

    4359 UPPER PART EQS.      4354 LOWER PART EQS.    BAND WIDTH + 1 =   91
 STRESS PERIOD=  1 TIMESTEP=799 LAYER=  1 ZONE=  2 ACTIVE CELLS= 8713 NUMBER OF EQUATIONS=    8713
 
 SOLVING FOR HEAD 

 OUTPUT CONTROL FOR STRESS PERIOD    1   TIME STEP  800
    PRINT BUDGET
    SAVE HEAD FOR ALL LAYERS
 SOLVING FOR ZETA FOR LAYER     1 ZONE     2

    4414 UPPER PART EQS.      4418 LOWER PART EQS.    BAND WIDTH + 1 =   92
 STRESS PERIOD=  1 TIMESTEP=800 LAYER=  1 ZONE=  2 ACTIVE CELLS= 8832 NUMBER OF EQUATIONS=    8832
 UBUDSV SAVING "      ZETASRF  1" ON UNIT 55 AT TIME STEP800, STRESS PERIOD    1


                      VOLUMETRIC SWI ZONE BUDGET FOR ENTIRE MODEL
                     AT END OF TIME STEP  800 IN STRESS PERIOD   1
                                      ZONE     1
  -----------------------------------------------------------------------------------

        CUMULATIVE VOLUMES      L**3       RATES FOR THIS TIME STEP      L**3/T
        ------------------                 ------------------------

              IN:                                      IN:
              ---                                      ---
             BOUNDARIES = 35527090176.0000            BOUNDARIES =      607926.9375
          CONSTANT HEAD =           0.0000         CONSTANT HEAD =           0.0000
            ZONE CHANGE =  4260572928.0000           ZONE CHANGE =        6606.8374
       ZONE CHG TIP/TOE =    53314788.0000      ZONE CHG TIP/TOE =         463.7733
            ZONE MIXING =           0.0000           ZONE MIXING =           0.0000

               TOTAL IN = 39840976896.0000              TOTAL IN =      614997.5000

             OUT:                                     OUT:
             ----                                     ----
             BOUNDARIES = 26732275712.0000            BOUNDARIES =      518701.8750
          CONSTANT HEAD =           0.0000         CONSTANT HEAD =           0.0000
            ZONE CHANGE = 13536896000.0000           ZONE CHANGE =      101388.2578
       ZONE CHG TIP/TOE =    37186080.0000      ZONE CHG TIP/TOE =         349.0275
            ZONE MIXING =           0.0000           ZONE MIXING =           0.0000

              TOTAL OUT = 40306360320.0000             TOTAL OUT =      620439.1250

               IN - OUT =  -465383424.0000              IN - OUT =       -5441.6250

    PERCENT DISCREPANCY =          -1.16     PERCENT DISCREPANCY =          -0.88



                      VOLUMETRIC SWI ZONE BUDGET FOR ENTIRE MODEL
                     AT END OF TIME STEP  800 IN STRESS PERIOD   1
                                      ZONE     2
  -----------------------------------------------------------------------------------

        CUMULATIVE VOLUMES      L**3       RATES FOR THIS TIME STEP      L**3/T
        ------------------                 ------------------------

              IN:                                      IN:
              ---                                      ---
             BOUNDARIES =   149863536.0000            BOUNDARIES =        2207.3936
          CONSTANT HEAD =           0.0000         CONSTANT HEAD =           0.0000
            ZONE CHANGE = 13536896000.0000           ZONE CHANGE =      101388.2578
       ZONE CHG TIP/TOE =   544869952.0000      ZONE CHG TIP/TOE =        5899.0850
            ZONE MIXING =           0.0000           ZONE MIXING =           0.0000

               TOTAL IN = 14231629824.0000              TOTAL IN =      109494.7344

             OUT:                                     OUT:
             ----                                     ----
             BOUNDARIES =  8944833536.0000            BOUNDARIES =       91432.4219
          CONSTANT HEAD =           0.0000         CONSTANT HEAD =           0.0000
            ZONE CHANGE =  4768258560.0000           ZONE CHANGE =       12156.8945
       ZONE CHG TIP/TOE =    53314788.0000      ZONE CHG TIP/TOE =         463.7733
            ZONE MIXING =           0.0000           ZONE MIXING =           0.0000

              TOTAL OUT = 13766407168.0000             TOTAL OUT =      104053.0859

               IN - OUT =   465222656.0000              IN - OUT =        5441.6484

    PERCENT DISCREPANCY =           3.32     PERCENT DISCREPANCY =           5.10


 HEAD WILL BE SAVED ON UNIT   51 AT END OF TIME STEP  800, STRESS PERIOD    1
1
  VOLUMETRIC BUDGET FOR ENTIRE MODEL AT END OF TIME STEP  800, STRESS PERIOD   1
  ------------------------------------------------------------------------------

     CUMULATIVE VOLUMES      L**3       RATES FOR THIS TIME STEP      L**3/T
     ------------------                 ------------------------

           IN:                                      IN:
           ---                                      ---
             STORAGE =           0.0000               STORAGE =           0.0000
       CONSTANT HEAD =           0.0000         CONSTANT HEAD =           0.0000
          SWIADDTOCH =           0.0000            SWIADDTOCH =           0.0000
     HEAD DEP BOUNDS =           0.0000       HEAD DEP BOUNDS =           0.0000
            RECHARGE = 39422087168.0000              RECHARGE =      674575.3125

            TOTAL IN = 39422087168.0000              TOTAL IN =      674575.3125

          OUT:                                     OUT:
          ----                                     ----
             STORAGE =           0.0000               STORAGE =           0.0000
       CONSTANT HEAD =           0.0000         CONSTANT HEAD =           0.0000
          SWIADDTOCH =           0.0000            SWIADDTOCH =           0.0000
     HEAD DEP BOUNDS = 39249801216.0000       HEAD DEP BOUNDS =      671630.5625
            RECHARGE =   172092016.0000              RECHARGE =        2944.7622

           TOTAL OUT = 39421894656.0000             TOTAL OUT =      674575.3125

            IN - OUT =      192512.0000              IN - OUT =           0.0000

 PERCENT DISCREPANCY =           0.00     PERCENT DISCREPANCY =           0.00






         TIME SUMMARY AT END OF TIME STEP  800 IN STRESS PERIOD    1
                    SECONDS     MINUTES      HOURS       DAYS        YEARS
                    -----------------------------------------------------------
   TIME STEP LENGTH 6.31152E+06 1.05192E+05  1753.2      73.050     0.20000    
 STRESS PERIOD TIME 5.04925E+09 8.41542E+07 1.40257E+06  58440.      160.00    
         TOTAL TIME 5.04925E+09 8.41542E+07 1.40257E+06  58440.      160.00    
1
 
 SOLVING FOR HEAD 

 NO OUTPUT CONTROL FOR STRESS PERIOD    1   TIME STEP  801
 SOLVING FOR ZETA FOR LAYER     1 ZONE     2

    4360 UPPER PART EQS.      4353 LOWER PART EQS.    BAND WIDTH + 1 =   90
 STRESS PERIOD=  1 TIMESTEP=801 LAYER=  1 ZONE=  2 ACTIVE CELLS= 8713 NUMBER OF EQUATIONS=    8713
 
 SOLVING FOR HEAD 

 NO OUTPUT CONTROL FOR STRESS PERIOD    1   TIME STEP  802
 SOLVING FOR ZETA FOR LAYER     1 ZONE     2

    4420 UPPER PART EQS.      4418 LOWER PART EQS.    BAND WIDTH + 1 =   93
 STRESS PERIOD=  1 TIMESTEP=802 LAYER=  1 ZONE=  2 ACTIVE CELLS= 8838 NUMBER OF EQUATIONS=    8838
 
 SOLVING FOR HEAD 

 NO OUTPUT CONTROL FOR STRESS PERIOD    1   TIME STEP  803
 SOLVING FOR ZETA FOR LAYER     1 ZONE     2

    4355 UPPER PART EQS.      4354 LOWER PART EQS.    BAND WIDTH + 1 =   91
 STRESS PERIOD=  1 TIMESTEP=803 LAYER=  1 ZONE=  2 ACTIVE CELLS= 8709 NUMBER OF EQUATIONS=    8709
 
 SOLVING FOR HEAD 

 NO OUTPUT CONTROL FOR STRESS PERIOD    1   TIME STEP  804
 SOLVING FOR ZETA FOR LAYER     1 ZONE     2

    4421 UPPER PART EQS.      4419 LOWER PART EQS.    BAND WIDTH + 1 =   93
 STRESS PERIOD=  1 TIMESTEP=804 LAYER=  1 ZONE=  2 ACTIVE CELLS= 8840 NUMBER OF EQUATIONS=    8840
 
 SOLVING FOR HEAD 

 NO OUTPUT CONTROL FOR STRESS PERIOD    1   TIME STEP  805
 SOLVING FOR ZETA FOR LAYER     1 ZONE     2

    4355 UPPER PART EQS.      4352 LOWER PART EQS.    BAND WIDTH + 1 =   91
 STRESS PERIOD=  1 TIMESTEP=805 LAYER=  1 ZONE=  2 ACTIVE CELLS= 8707 NUMBER OF EQUATIONS=    8707
 
 SOLVING FOR HEAD 

 NO OUTPUT CONTROL FOR STRESS PERIOD    1   TIME STEP  806
 SOLVING FOR ZETA FOR LAYER     1 ZONE     2

    4415 UPPER PART EQS.      4421 LOWER PART EQS.    BAND WIDTH + 1 =   92
 STRESS PERIOD=  1 TIMESTEP=806 LAYER=  1 ZONE=  2 ACTIVE CELLS= 8836 NUMBER OF EQUATIONS=    8836
 
 SOLVING FOR HEAD 

 NO OUTPUT CONTROL FOR STRESS PERIOD    1   TIME STEP  807
 SOLVING FOR ZETA FOR LAYER     1 ZONE     2

    4358 UPPER PART EQS.      4353 LOWER PART EQS.    BAND WIDTH + 1 =   90
 STRESS PERIOD=  1 TIMESTEP=807 LAYER=  1 ZONE=  2 ACTIVE CELLS= 8711 NUMBER OF EQUATIONS=    8711
 
 SOLVING FOR HEAD 

 NO OUTPUT CONTROL FOR STRESS PERIOD    1   TIME STEP  808
 SOLVING FOR ZETA FOR LAYER     1 ZONE     2

    4419 UPPER PART EQS.      4423 LOWER PART EQS.    BAND WIDTH + 1 =   92
 STRESS PERIOD=  1 TIMESTEP=808 LAYER=  1 ZONE=  2 ACTIVE CELLS= 8842 NUMBER OF EQUATIONS=    8842
 
 SOLVING FOR HEAD 

 NO OUTPUT CONTROL FOR STRESS PERIOD    1   TIME STEP  809
 SOLVING FOR ZETA FOR LAYER     1 ZONE     2

    4355 UPPER PART EQS.      4353 LOWER PART EQS.    BAND WIDTH + 1 =   91
 STRESS PERIOD=  1 TIMESTEP=809 LAYER=  1 ZONE=  2 ACTIVE CELLS= 8708 NUMBER OF EQUATIONS=    8708
 
 SOLVING FOR HEAD 

 NO OUTPUT CONTROL FOR STRESS PERIOD    1   TIME STEP  810
 SOLVING FOR ZETA FOR LAYER     1 ZONE     2

    4416 UPPER PART EQS.      4420 LOWER PART EQS.    BAND WIDTH + 1 =   93
 STRESS PERIOD=  1 TIMESTEP=810 LAYER=  1 ZONE=  2 ACTIVE CELLS= 8836 NUMBER OF EQUATIONS=    8836
 
 SOLVING FOR HEAD 

 NO OUTPUT CONTROL FOR STRESS PERIOD    1   TIME STEP  811
 SOLVING FOR ZETA FOR LAYER     1 ZONE     2

    4355 UPPER PART EQS.      4355 LOWER PART EQS.    BAND WIDTH + 1 =   92
 STRESS PERIOD=  1 TIMESTEP=811 LAYER=  1 ZONE=  2 ACTIVE CELLS= 8710 NUMBER OF EQUATIONS=    8710
 
 SOLVING FOR HEAD 

 NO OUTPUT CONTROL FOR STRESS PERIOD    1   TIME STEP  812
 SOLVING FOR ZETA FOR LAYER     1 ZONE     2

    4413 UPPER PART EQS.      4421 LOWER PART EQS.    BAND WIDTH + 1 =   92
 STRESS PERIOD=  1 TIMESTEP=812 LAYER=  1 ZONE=  2 ACTIVE CELLS= 8834 NUMBER OF EQUATIONS=    8834
 
 SOLVING FOR HEAD 

 NO OUTPUT CONTROL FOR STRESS PERIOD    1   TIME STEP  813
 SOLVING FOR ZETA FOR LAYER     1 ZONE     2

    4352 UPPER PART EQS.      4356 LOWER PART EQS.    BAND WIDTH + 1 =   90
 STRESS PERIOD=  1 TIMESTEP=813 LAYER=  1 ZONE=  2 ACTIVE CELLS= 8708 NUMBER OF EQUATIONS=    8708
 
 SOLVING FOR HEAD 

 NO OUTPUT CONTROL FOR STRESS PERIOD    1   TIME STEP  814
 SOLVING FOR ZETA FOR LAYER     1 ZONE     2

    4414 UPPER PART EQS.      4420 LOWER PART EQS.    BAND WIDTH + 1 =   92
 STRESS PERIOD=  1 TIMESTEP=814 LAYER=  1 ZONE=  2 ACTIVE CELLS= 8834 NUMBER OF EQUATIONS=    8834
 
 SOLVING FOR HEAD 

 NO OUTPUT CONTROL FOR STRESS PERIOD    1   TIME STEP  815
 SOLVING FOR ZETA FOR LAYER     1 ZONE     2

    4352 UPPER PART EQS.      4355 LOWER PART EQS.    BAND WIDTH + 1 =   91
 STRESS PERIOD=  1 TIMESTEP=815 LAYER=  1 ZONE=  2 ACTIVE CELLS= 8707 NUMBER OF EQUATIONS=    8707
 
 SOLVING FOR HEAD 

 NO OUTPUT CONTROL FOR STRESS PERIOD    1   TIME STEP  816
 SOLVING FOR ZETA FOR LAYER     1 ZONE     2

    4413 UPPER PART EQS.      4423 LOWER PART EQS.    BAND WIDTH + 1 =   93
 STRESS PERIOD=  1 TIMESTEP=816 LAYER=  1 ZONE=  2 ACTIVE CELLS= 8836 NUMBER OF EQUATIONS=    8836
 
 SOLVING FOR HEAD 

 NO OUTPUT CONTROL FOR STRESS PERIOD    1   TIME STEP  817
 SOLVING FOR ZETA FOR LAYER     1 ZONE     2

    4353 UPPER PART EQS.      4353 LOWER PART EQS.    BAND WIDTH + 1 =   92
 STRESS PERIOD=  1 TIMESTEP=817 LAYER=  1 ZONE=  2 ACTIVE CELLS= 8706 NUMBER OF EQUATIONS=    8706
 
 SOLVING FOR HEAD 

 NO OUTPUT CONTROL FOR STRESS PERIOD    1   TIME STEP  818
 SOLVING FOR ZETA FOR LAYER     1 ZONE     2

    4416 UPPER PART EQS.      4421 LOWER PART EQS.    BAND WIDTH + 1 =   92
 STRESS PERIOD=  1 TIMESTEP=818 LAYER=  1 ZONE=  2 ACTIVE CELLS= 8837 NUMBER OF EQUATIONS=    8837
 
 SOLVING FOR HEAD 

 NO OUTPUT CONTROL FOR STRESS PERIOD    1   TIME STEP  819
 SOLVING FOR ZETA FOR LAYER     1 ZONE     2

    4350 UPPER PART EQS.      4356 LOWER PART EQS.    BAND WIDTH + 1 =   90
 STRESS PERIOD=  1 TIMESTEP=819 LAYER=  1 ZONE=  2 ACTIVE CELLS= 8706 NUMBER OF EQUATIONS=    8706
 
 SOLVING FOR HEAD 

 NO OUTPUT CONTROL FOR STRESS PERIOD    1   TIME STEP  820
 SOLVING FOR ZETA FOR LAYER     1 ZONE     2

    4419 UPPER PART EQS.      4419 LOWER PART EQS.    BAND WIDTH + 1 =   92
 STRESS PERIOD=  1 TIMESTEP=820 LAYER=  1 ZONE=  2 ACTIVE CELLS= 8838 NUMBER OF EQUATIONS=    8838
 
 SOLVING FOR HEAD 

 NO OUTPUT CONTROL FOR STRESS PERIOD    1   TIME STEP  821
 SOLVING FOR ZETA FOR LAYER     1 ZONE     2

    4354 UPPER PART EQS.      4354 LOWER PART EQS.    BAND WIDTH + 1 =   91
 STRESS PERIOD=  1 TIMESTEP=821 LAYER=  1 ZONE=  2 ACTIVE CELLS= 8708 NUMBER OF EQUATIONS=    8708
 
 SOLVING FOR HEAD 

 NO OUTPUT CONTROL FOR STRESS PERIOD    1   TIME STEP  822
 SOLVING FOR ZETA FOR LAYER     1 ZONE     2

    4416 UPPER PART EQS.      4423 LOWER PART EQS.    BAND WIDTH + 1 =   94
 STRESS PERIOD=  1 TIMESTEP=822 LAYER=  1 ZONE=  2 ACTIVE CELLS= 8839 NUMBER OF EQUATIONS=    8839
 
 SOLVING FOR HEAD 

 NO OUTPUT CONTROL FOR STRESS PERIOD    1   TIME STEP  823
 SOLVING FOR ZETA FOR LAYER     1 ZONE     2

    4352 UPPER PART EQS.      4354 LOWER PART EQS.    BAND WIDTH + 1 =   91
 STRESS PERIOD=  1 TIMESTEP=823 LAYER=  1 ZONE=  2 ACTIVE CELLS= 8706 NUMBER OF EQUATIONS=    8706
 
 SOLVING FOR HEAD 

 NO OUTPUT CONTROL FOR STRESS PERIOD    1   TIME STEP  824
 SOLVING FOR ZETA FOR LAYER     1 ZONE     2

    4417 UPPER PART EQS.      4423 LOWER PART EQS.    BAND WIDTH + 1 =   92
 STRESS PERIOD=  1 TIMESTEP=824 LAYER=  1 ZONE=  2 ACTIVE CELLS= 8840 NUMBER OF EQUATIONS=    8840
 
 SOLVING FOR HEAD 

 NO OUTPUT CONTROL FOR STRESS PERIOD    1   TIME STEP  825
 SOLVING FOR ZETA FOR LAYER     1 ZONE     2

    4353 UPPER PART EQS.      4348 LOWER PART EQS.    BAND WIDTH + 1 =   91
 STRESS PERIOD=  1 TIMESTEP=825 LAYER=  1 ZONE=  2 ACTIVE CELLS= 8701 NUMBER OF EQUATIONS=    8701
 
 SOLVING FOR HEAD 

 NO OUTPUT CONTROL FOR STRESS PERIOD    1   TIME STEP  826
 SOLVING FOR ZETA FOR LAYER     1 ZONE     2

    4418 UPPER PART EQS.      4419 LOWER PART EQS.    BAND WIDTH + 1 =   92
 STRESS PERIOD=  1 TIMESTEP=826 LAYER=  1 ZONE=  2 ACTIVE CELLS= 8837 NUMBER OF EQUATIONS=    8837
 
 SOLVING FOR HEAD 

 NO OUTPUT CONTROL FOR STRESS PERIOD    1   TIME STEP  827
 SOLVING FOR ZETA FOR LAYER     1 ZONE     2

    4359 UPPER PART EQS.      4353 LOWER PART EQS.    BAND WIDTH + 1 =   90
 STRESS PERIOD=  1 TIMESTEP=827 LAYER=  1 ZONE=  2 ACTIVE CELLS= 8712 NUMBER OF EQUATIONS=    8712
 
 SOLVING FOR HEAD 

 NO OUTPUT CONTROL FOR STRESS PERIOD    1   TIME STEP  828
 SOLVING FOR ZETA FOR LAYER     1 ZONE     2

    4414 UPPER PART EQS.      4424 LOWER PART EQS.    BAND WIDTH + 1 =   94
 STRESS PERIOD=  1 TIMESTEP=828 LAYER=  1 ZONE=  2 ACTIVE CELLS= 8838 NUMBER OF EQUATIONS=    8838
 
 SOLVING FOR HEAD 

 NO OUTPUT CONTROL FOR STRESS PERIOD    1   TIME STEP  829
 SOLVING FOR ZETA FOR LAYER     1 ZONE     2

    4361 UPPER PART EQS.      4350 LOWER PART EQS.    BAND WIDTH + 1 =   91
 STRESS PERIOD=  1 TIMESTEP=829 LAYER=  1 ZONE=  2 ACTIVE CELLS= 8711 NUMBER OF EQUATIONS=    8711
 
 SOLVING FOR HEAD 

 NO OUTPUT CONTROL FOR STRESS PERIOD    1   TIME STEP  830
 SOLVING FOR ZETA FOR LAYER     1 ZONE     2

    4416 UPPER PART EQS.      4423 LOWER PART EQS.    BAND WIDTH + 1 =   92
 STRESS PERIOD=  1 TIMESTEP=830 LAYER=  1 ZONE=  2 ACTIVE CELLS= 8839 NUMBER OF EQUATIONS=    8839
 
 SOLVING FOR HEAD 

 NO OUTPUT CONTROL FOR STRESS PERIOD    1   TIME STEP  831
 SOLVING FOR ZETA FOR LAYER     1 ZONE     2

    4354 UPPER PART EQS.      4353 LOWER PART EQS.    BAND WIDTH + 1 =   90
 STRESS PERIOD=  1 TIMESTEP=831 LAYER=  1 ZONE=  2 ACTIVE CELLS= 8707 NUMBER OF EQUATIONS=    8707
 
 SOLVING FOR HEAD 

 NO OUTPUT CONTROL FOR STRESS PERIOD    1   TIME STEP  832
 SOLVING FOR ZETA FOR LAYER     1 ZONE     2

    4420 UPPER PART EQS.      4422 LOWER PART EQS.    BAND WIDTH + 1 =   91
 STRESS PERIOD=  1 TIMESTEP=832 LAYER=  1 ZONE=  2 ACTIVE CELLS= 8842 NUMBER OF EQUATIONS=    8842
 
 SOLVING FOR HEAD 

 NO OUTPUT CONTROL FOR STRESS PERIOD    1   TIME STEP  833
 SOLVING FOR ZETA FOR LAYER     1 ZONE     2

    4356 UPPER PART EQS.      4353 LOWER PART EQS.    BAND WIDTH + 1 =   90
 STRESS PERIOD=  1 TIMESTEP=833 LAYER=  1 ZONE=  2 ACTIVE CELLS= 8709 NUMBER OF EQUATIONS=    8709
 
 SOLVING FOR HEAD 

 NO OUTPUT CONTROL FOR STRESS PERIOD    1   TIME STEP  834
 SOLVING FOR ZETA FOR LAYER     1 ZONE     2

    4420 UPPER PART EQS.      4423 LOWER PART EQS.    BAND WIDTH + 1 =   93
 STRESS PERIOD=  1 TIMESTEP=834 LAYER=  1 ZONE=  2 ACTIVE CELLS= 8843 NUMBER OF EQUATIONS=    8843
 
 SOLVING FOR HEAD 

 NO OUTPUT CONTROL FOR STRESS PERIOD    1   TIME STEP  835
 SOLVING FOR ZETA FOR LAYER     1 ZONE     2

    4357 UPPER PART EQS.      4353 LOWER PART EQS.    BAND WIDTH + 1 =   91
 STRESS PERIOD=  1 TIMESTEP=835 LAYER=  1 ZONE=  2 ACTIVE CELLS= 8710 NUMBER OF EQUATIONS=    8710
 
 SOLVING FOR HEAD 

 NO OUTPUT CONTROL FOR STRESS PERIOD    1   TIME STEP  836
 SOLVING FOR ZETA FOR LAYER     1 ZONE     2

    4418 UPPER PART EQS.      4426 LOWER PART EQS.    BAND WIDTH + 1 =   91
 STRESS PERIOD=  1 TIMESTEP=836 LAYER=  1 ZONE=  2 ACTIVE CELLS= 8844 NUMBER OF EQUATIONS=    8844
 
 SOLVING FOR HEAD 

 NO OUTPUT CONTROL FOR STRESS PERIOD    1   TIME STEP  837
 SOLVING FOR ZETA FOR LAYER     1 ZONE     2

    4355 UPPER PART EQS.      4355 LOWER PART EQS.    BAND WIDTH + 1 =   90
 STRESS PERIOD=  1 TIMESTEP=837 LAYER=  1 ZONE=  2 ACTIVE CELLS= 8710 NUMBER OF EQUATIONS=    8710
 
 SOLVING FOR HEAD 

 NO OUTPUT CONTROL FOR STRESS PERIOD    1   TIME STEP  838
 SOLVING FOR ZETA FOR LAYER     1 ZONE     2

    4418 UPPER PART EQS.      4420 LOWER PART EQS.    BAND WIDTH + 1 =   91
 STRESS PERIOD=  1 TIMESTEP=838 LAYER=  1 ZONE=  2 ACTIVE CELLS= 8838 NUMBER OF EQUATIONS=    8838
 
 SOLVING FOR HEAD 

 NO OUTPUT CONTROL FOR STRESS PERIOD    1   TIME STEP  839
 SOLVING FOR ZETA FOR LAYER     1 ZONE     2

    4360 UPPER PART EQS.      4359 LOWER PART EQS.    BAND WIDTH + 1 =   91
 STRESS PERIOD=  1 TIMESTEP=839 LAYER=  1 ZONE=  2 ACTIVE CELLS= 8719 NUMBER OF EQUATIONS=    8719
 
 SOLVING FOR HEAD 

 NO OUTPUT CONTROL FOR STRESS PERIOD    1   TIME STEP  840
 SOLVING FOR ZETA FOR LAYER     1 ZONE     2

    4415 UPPER PART EQS.      4422 LOWER PART EQS.    BAND WIDTH + 1 =   93
 STRESS PERIOD=  1 TIMESTEP=840 LAYER=  1 ZONE=  2 ACTIVE CELLS= 8837 NUMBER OF EQUATIONS=    8837
 
 SOLVING FOR HEAD 

 NO OUTPUT CONTROL FOR STRESS PERIOD    1   TIME STEP  841
 SOLVING FOR ZETA FOR LAYER     1 ZONE     2

    4361 UPPER PART EQS.      4354 LOWER PART EQS.    BAND WIDTH + 1 =   92
 STRESS PERIOD=  1 TIMESTEP=841 LAYER=  1 ZONE=  2 ACTIVE CELLS= 8715 NUMBER OF EQUATIONS=    8715
 
 SOLVING FOR HEAD 

 NO OUTPUT CONTROL FOR STRESS PERIOD    1   TIME STEP  842
 SOLVING FOR ZETA FOR LAYER     1 ZONE     2

    4420 UPPER PART EQS.      4417 LOWER PART EQS.    BAND WIDTH + 1 =   91
 STRESS PERIOD=  1 TIMESTEP=842 LAYER=  1 ZONE=  2 ACTIVE CELLS= 8837 NUMBER OF EQUATIONS=    8837
 
 SOLVING FOR HEAD 

 NO OUTPUT CONTROL FOR STRESS PERIOD    1   TIME STEP  843
 SOLVING FOR ZETA FOR LAYER     1 ZONE     2

    4359 UPPER PART EQS.      4359 LOWER PART EQS.    BAND WIDTH + 1 =   90
 STRESS PERIOD=  1 TIMESTEP=843 LAYER=  1 ZONE=  2 ACTIVE CELLS= 8718 NUMBER OF EQUATIONS=    8718
 
 SOLVING FOR HEAD 

 NO OUTPUT CONTROL FOR STRESS PERIOD    1   TIME STEP  844
 SOLVING FOR ZETA FOR LAYER     1 ZONE     2

    4420 UPPER PART EQS.      4416 LOWER PART EQS.    BAND WIDTH + 1 =   92
 STRESS PERIOD=  1 TIMESTEP=844 LAYER=  1 ZONE=  2 ACTIVE CELLS= 8836 NUMBER OF EQUATIONS=    8836
 
 SOLVING FOR HEAD 

 NO OUTPUT CONTROL FOR STRESS PERIOD    1   TIME STEP  845
 SOLVING FOR ZETA FOR LAYER     1 ZONE     2

    4358 UPPER PART EQS.      4352 LOWER PART EQS.    BAND WIDTH + 1 =   90
 STRESS PERIOD=  1 TIMESTEP=845 LAYER=  1 ZONE=  2 ACTIVE CELLS= 8710 NUMBER OF EQUATIONS=    8710
 
 SOLVING FOR HEAD 

 NO OUTPUT CONTROL FOR STRESS PERIOD    1   TIME STEP  846
 SOLVING FOR ZETA FOR LAYER     1 ZONE     2

    4420 UPPER PART EQS.      4416 LOWER PART EQS.    BAND WIDTH + 1 =   92
 STRESS PERIOD=  1 TIMESTEP=846 LAYER=  1 ZONE=  2 ACTIVE CELLS= 8836 NUMBER OF EQUATIONS=    8836
 
 SOLVING FOR HEAD 

 NO OUTPUT CONTROL FOR STRESS PERIOD    1   TIME STEP  847
 SOLVING FOR ZETA FOR LAYER     1 ZONE     2

    4360 UPPER PART EQS.      4356 LOWER PART EQS.    BAND WIDTH + 1 =   89
 STRESS PERIOD=  1 TIMESTEP=847 LAYER=  1 ZONE=  2 ACTIVE CELLS= 8716 NUMBER OF EQUATIONS=    8716
 
 SOLVING FOR HEAD 

 NO OUTPUT CONTROL FOR STRESS PERIOD    1   TIME STEP  848
 SOLVING FOR ZETA FOR LAYER     1 ZONE     2

    4423 UPPER PART EQS.      4415 LOWER PART EQS.    BAND WIDTH + 1 =   91
 STRESS PERIOD=  1 TIMESTEP=848 LAYER=  1 ZONE=  2 ACTIVE CELLS= 8838 NUMBER OF EQUATIONS=    8838
 
 SOLVING FOR HEAD 

 NO OUTPUT CONTROL FOR STRESS PERIOD    1   TIME STEP  849
 SOLVING FOR ZETA FOR LAYER     1 ZONE     2

    4356 UPPER PART EQS.      4354 LOWER PART EQS.    BAND WIDTH + 1 =   90
 STRESS PERIOD=  1 TIMESTEP=849 LAYER=  1 ZONE=  2 ACTIVE CELLS= 8710 NUMBER OF EQUATIONS=    8710
 
 SOLVING FOR HEAD 

 NO OUTPUT CONTROL FOR STRESS PERIOD    1   TIME STEP  850
 SOLVING FOR ZETA FOR LAYER     1 ZONE     2

    4423 UPPER PART EQS.      4416 LOWER PART EQS.    BAND WIDTH + 1 =   92
 STRESS PERIOD=  1 TIMESTEP=850 LAYER=  1 ZONE=  2 ACTIVE CELLS= 8839 NUMBER OF EQUATIONS=    8839
 
 SOLVING FOR HEAD 

 NO OUTPUT CONTROL FOR STRESS PERIOD    1   TIME STEP  851
 SOLVING FOR ZETA FOR LAYER     1 ZONE     2

    4358 UPPER PART EQS.      4356 LOWER PART EQS.    BAND WIDTH + 1 =   89
 STRESS PERIOD=  1 TIMESTEP=851 LAYER=  1 ZONE=  2 ACTIVE CELLS= 8714 NUMBER OF EQUATIONS=    8714
 
 SOLVING FOR HEAD 

 NO OUTPUT CONTROL FOR STRESS PERIOD    1   TIME STEP  852
 SOLVING FOR ZETA FOR LAYER     1 ZONE     2

    4425 UPPER PART EQS.      4419 LOWER PART EQS.    BAND WIDTH + 1 =   92
 STRESS PERIOD=  1 TIMESTEP=852 LAYER=  1 ZONE=  2 ACTIVE CELLS= 8844 NUMBER OF EQUATIONS=    8844
 
 SOLVING FOR HEAD 

 NO OUTPUT CONTROL FOR STRESS PERIOD    1   TIME STEP  853
 SOLVING FOR ZETA FOR LAYER     1 ZONE     2

    4354 UPPER PART EQS.      4355 LOWER PART EQS.    BAND WIDTH + 1 =   91
 STRESS PERIOD=  1 TIMESTEP=853 LAYER=  1 ZONE=  2 ACTIVE CELLS= 8709 NUMBER OF EQUATIONS=    8709
 
 SOLVING FOR HEAD 

 NO OUTPUT CONTROL FOR STRESS PERIOD    1   TIME STEP  854
 SOLVING FOR ZETA FOR LAYER     1 ZONE     2

    4424 UPPER PART EQS.      4417 LOWER PART EQS.    BAND WIDTH + 1 =   92
 STRESS PERIOD=  1 TIMESTEP=854 LAYER=  1 ZONE=  2 ACTIVE CELLS= 8841 NUMBER OF EQUATIONS=    8841
 
 SOLVING FOR HEAD 

 NO OUTPUT CONTROL FOR STRESS PERIOD    1   TIME STEP  855
 SOLVING FOR ZETA FOR LAYER     1 ZONE     2

    4358 UPPER PART EQS.      4361 LOWER PART EQS.    BAND WIDTH + 1 =   91
 STRESS PERIOD=  1 TIMESTEP=855 LAYER=  1 ZONE=  2 ACTIVE CELLS= 8719 NUMBER OF EQUATIONS=    8719
 
 SOLVING FOR HEAD 

 NO OUTPUT CONTROL FOR STRESS PERIOD    1   TIME STEP  856
 SOLVING FOR ZETA FOR LAYER     1 ZONE     2

    4422 UPPER PART EQS.      4416 LOWER PART EQS.    BAND WIDTH + 1 =   92
 STRESS PERIOD=  1 TIMESTEP=856 LAYER=  1 ZONE=  2 ACTIVE CELLS= 8838 NUMBER OF EQUATIONS=    8838
 
 SOLVING FOR HEAD 

 NO OUTPUT CONTROL FOR STRESS PERIOD    1   TIME STEP  857
 SOLVING FOR ZETA FOR LAYER     1 ZONE     2

    4359 UPPER PART EQS.      4355 LOWER PART EQS.    BAND WIDTH + 1 =   89
 STRESS PERIOD=  1 TIMESTEP=857 LAYER=  1 ZONE=  2 ACTIVE CELLS= 8714 NUMBER OF EQUATIONS=    8714
 
 SOLVING FOR HEAD 

 NO OUTPUT CONTROL FOR STRESS PERIOD    1   TIME STEP  858
 SOLVING FOR ZETA FOR LAYER     1 ZONE     2

    4420 UPPER PART EQS.      4419 LOWER PART EQS.    BAND WIDTH + 1 =   92
 STRESS PERIOD=  1 TIMESTEP=858 LAYER=  1 ZONE=  2 ACTIVE CELLS= 8839 NUMBER OF EQUATIONS=    8839
 
 SOLVING FOR HEAD 

 NO OUTPUT CONTROL FOR STRESS PERIOD    1   TIME STEP  859
 SOLVING FOR ZETA FOR LAYER     1 ZONE     2

    4361 UPPER PART EQS.      4356 LOWER PART EQS.    BAND WIDTH + 1 =   92
 STRESS PERIOD=  1 TIMESTEP=859 LAYER=  1 ZONE=  2 ACTIVE CELLS= 8717 NUMBER OF EQUATIONS=    8717
 
 SOLVING FOR HEAD 

 NO OUTPUT CONTROL FOR STRESS PERIOD    1   TIME STEP  860
 SOLVING FOR ZETA FOR LAYER     1 ZONE     2

    4423 UPPER PART EQS.      4414 LOWER PART EQS.    BAND WIDTH + 1 =   91
 STRESS PERIOD=  1 TIMESTEP=860 LAYER=  1 ZONE=  2 ACTIVE CELLS= 8837 NUMBER OF EQUATIONS=    8837
 
 SOLVING FOR HEAD 

 NO OUTPUT CONTROL FOR STRESS PERIOD    1   TIME STEP  861
 SOLVING FOR ZETA FOR LAYER     1 ZONE     2

    4359 UPPER PART EQS.      4360 LOWER PART EQS.    BAND WIDTH + 1 =   91
 STRESS PERIOD=  1 TIMESTEP=861 LAYER=  1 ZONE=  2 ACTIVE CELLS= 8719 NUMBER OF EQUATIONS=    8719
 
 SOLVING FOR HEAD 

 NO OUTPUT CONTROL FOR STRESS PERIOD    1   TIME STEP  862
 SOLVING FOR ZETA FOR LAYER     1 ZONE     2

    4425 UPPER PART EQS.      4413 LOWER PART EQS.    BAND WIDTH + 1 =   92
 STRESS PERIOD=  1 TIMESTEP=862 LAYER=  1 ZONE=  2 ACTIVE CELLS= 8838 NUMBER OF EQUATIONS=    8838
 
 SOLVING FOR HEAD 

 NO OUTPUT CONTROL FOR STRESS PERIOD    1   TIME STEP  863
 SOLVING FOR ZETA FOR LAYER     1 ZONE     2

    4360 UPPER PART EQS.      4356 LOWER PART EQS.    BAND WIDTH + 1 =   90
 STRESS PERIOD=  1 TIMESTEP=863 LAYER=  1 ZONE=  2 ACTIVE CELLS= 8716 NUMBER OF EQUATIONS=    8716
 
 SOLVING FOR HEAD 

 NO OUTPUT CONTROL FOR STRESS PERIOD    1   TIME STEP  864
 SOLVING FOR ZETA FOR LAYER     1 ZONE     2

    4425 UPPER PART EQS.      4422 LOWER PART EQS.    BAND WIDTH + 1 =   92
 STRESS PERIOD=  1 TIMESTEP=864 LAYER=  1 ZONE=  2 ACTIVE CELLS= 8847 NUMBER OF EQUATIONS=    8847
 
 SOLVING FOR HEAD 

 NO OUTPUT CONTROL FOR STRESS PERIOD    1   TIME STEP  865
 SOLVING FOR ZETA FOR LAYER     1 ZONE     2

    4358 UPPER PART EQS.      4359 LOWER PART EQS.    BAND WIDTH + 1 =   92
 STRESS PERIOD=  1 TIMESTEP=865 LAYER=  1 ZONE=  2 ACTIVE CELLS= 8717 NUMBER OF EQUATIONS=    8717
 
 SOLVING FOR HEAD 

 NO OUTPUT CONTROL FOR STRESS PERIOD    1   TIME STEP  866
 SOLVING FOR ZETA FOR LAYER     1 ZONE     2

    4428 UPPER PART EQS.      4413 LOWER PART EQS.    BAND WIDTH + 1 =   93
 STRESS PERIOD=  1 TIMESTEP=866 LAYER=  1 ZONE=  2 ACTIVE CELLS= 8841 NUMBER OF EQUATIONS=    8841
 
 SOLVING FOR HEAD 

 NO OUTPUT CONTROL FOR STRESS PERIOD    1   TIME STEP  867
 SOLVING FOR ZETA FOR LAYER     1 ZONE     2

    4361 UPPER PART EQS.      4361 LOWER PART EQS.    BAND WIDTH + 1 =   91
 STRESS PERIOD=  1 TIMESTEP=867 LAYER=  1 ZONE=  2 ACTIVE CELLS= 8722 NUMBER OF EQUATIONS=    8722
 
 SOLVING FOR HEAD 

 NO OUTPUT CONTROL FOR STRESS PERIOD    1   TIME STEP  868
 SOLVING FOR ZETA FOR LAYER     1 ZONE     2

    4427 UPPER PART EQS.      4414 LOWER PART EQS.    BAND WIDTH + 1 =   94
 STRESS PERIOD=  1 TIMESTEP=868 LAYER=  1 ZONE=  2 ACTIVE CELLS= 8841 NUMBER OF EQUATIONS=    8841
 
 SOLVING FOR HEAD 

 NO OUTPUT CONTROL FOR STRESS PERIOD    1   TIME STEP  869
 SOLVING FOR ZETA FOR LAYER     1 ZONE     2

    4363 UPPER PART EQS.      4358 LOWER PART EQS.    BAND WIDTH + 1 =   90
 STRESS PERIOD=  1 TIMESTEP=869 LAYER=  1 ZONE=  2 ACTIVE CELLS= 8721 NUMBER OF EQUATIONS=    8721
 
 SOLVING FOR HEAD 

 NO OUTPUT CONTROL FOR STRESS PERIOD    1   TIME STEP  870
 SOLVING FOR ZETA FOR LAYER     1 ZONE     2

    4425 UPPER PART EQS.      4418 LOWER PART EQS.    BAND WIDTH + 1 =   91
 STRESS PERIOD=  1 TIMESTEP=870 LAYER=  1 ZONE=  2 ACTIVE CELLS= 8843 NUMBER OF EQUATIONS=    8843
 
 SOLVING FOR HEAD 

 NO OUTPUT CONTROL FOR STRESS PERIOD    1   TIME STEP  871
 SOLVING FOR ZETA FOR LAYER     1 ZONE     2

    4367 UPPER PART EQS.      4355 LOWER PART EQS.    BAND WIDTH + 1 =   91
 STRESS PERIOD=  1 TIMESTEP=871 LAYER=  1 ZONE=  2 ACTIVE CELLS= 8722 NUMBER OF EQUATIONS=    8722
 
 SOLVING FOR HEAD 

 NO OUTPUT CONTROL FOR STRESS PERIOD    1   TIME STEP  872
 SOLVING FOR ZETA FOR LAYER     1 ZONE     2

    4428 UPPER PART EQS.      4419 LOWER PART EQS.    BAND WIDTH + 1 =   91
 STRESS PERIOD=  1 TIMESTEP=872 LAYER=  1 ZONE=  2 ACTIVE CELLS= 8847 NUMBER OF EQUATIONS=    8847
 
 SOLVING FOR HEAD 

 NO OUTPUT CONTROL FOR STRESS PERIOD    1   TIME STEP  873
 SOLVING FOR ZETA FOR LAYER     1 ZONE     2

    4361 UPPER PART EQS.      4359 LOWER PART EQS.    BAND WIDTH + 1 =   90
 STRESS PERIOD=  1 TIMESTEP=873 LAYER=  1 ZONE=  2 ACTIVE CELLS= 8720 NUMBER OF EQUATIONS=    8720
 
 SOLVING FOR HEAD 

 NO OUTPUT CONTROL FOR STRESS PERIOD    1   TIME STEP  874
 SOLVING FOR ZETA FOR LAYER     1 ZONE     2

    4433 UPPER PART EQS.      4414 LOWER PART EQS.    BAND WIDTH + 1 =   93
 STRESS PERIOD=  1 TIMESTEP=874 LAYER=  1 ZONE=  2 ACTIVE CELLS= 8847 NUMBER OF EQUATIONS=    8847
 
 SOLVING FOR HEAD 

 NO OUTPUT CONTROL FOR STRESS PERIOD    1   TIME STEP  875
 SOLVING FOR ZETA FOR LAYER     1 ZONE     2

    4366 UPPER PART EQS.      4356 LOWER PART EQS.    BAND WIDTH + 1 =   91
 STRESS PERIOD=  1 TIMESTEP=875 LAYER=  1 ZONE=  2 ACTIVE CELLS= 8722 NUMBER OF EQUATIONS=    8722
 
 SOLVING FOR HEAD 

 NO OUTPUT CONTROL FOR STRESS PERIOD    1   TIME STEP  876
 SOLVING FOR ZETA FOR LAYER     1 ZONE     2

    4430 UPPER PART EQS.      4421 LOWER PART EQS.    BAND WIDTH + 1 =   92
 STRESS PERIOD=  1 TIMESTEP=876 LAYER=  1 ZONE=  2 ACTIVE CELLS= 8851 NUMBER OF EQUATIONS=    8851
 
 SOLVING FOR HEAD 

 NO OUTPUT CONTROL FOR STRESS PERIOD    1   TIME STEP  877
 SOLVING FOR ZETA FOR LAYER     1 ZONE     2

    4364 UPPER PART EQS.      4356 LOWER PART EQS.    BAND WIDTH + 1 =   90
 STRESS PERIOD=  1 TIMESTEP=877 LAYER=  1 ZONE=  2 ACTIVE CELLS= 8720 NUMBER OF EQUATIONS=    8720
 
 SOLVING FOR HEAD 

 NO OUTPUT CONTROL FOR STRESS PERIOD    1   TIME STEP  878
 SOLVING FOR ZETA FOR LAYER     1 ZONE     2

    4431 UPPER PART EQS.      4416 LOWER PART EQS.    BAND WIDTH + 1 =   92
 STRESS PERIOD=  1 TIMESTEP=878 LAYER=  1 ZONE=  2 ACTIVE CELLS= 8847 NUMBER OF EQUATIONS=    8847
 
 SOLVING FOR HEAD 

 NO OUTPUT CONTROL FOR STRESS PERIOD    1   TIME STEP  879
 SOLVING FOR ZETA FOR LAYER     1 ZONE     2

    4364 UPPER PART EQS.      4359 LOWER PART EQS.    BAND WIDTH + 1 =   90
 STRESS PERIOD=  1 TIMESTEP=879 LAYER=  1 ZONE=  2 ACTIVE CELLS= 8723 NUMBER OF EQUATIONS=    8723
 
 SOLVING FOR HEAD 

 NO OUTPUT CONTROL FOR STRESS PERIOD    1   TIME STEP  880
 SOLVING FOR ZETA FOR LAYER     1 ZONE     2

    4433 UPPER PART EQS.      4416 LOWER PART EQS.    BAND WIDTH + 1 =   94
 STRESS PERIOD=  1 TIMESTEP=880 LAYER=  1 ZONE=  2 ACTIVE CELLS= 8849 NUMBER OF EQUATIONS=    8849
 
 SOLVING FOR HEAD 

 NO OUTPUT CONTROL FOR STRESS PERIOD    1   TIME STEP  881
 SOLVING FOR ZETA FOR LAYER     1 ZONE     2

    4366 UPPER PART EQS.      4355 LOWER PART EQS.    BAND WIDTH + 1 =   90
 STRESS PERIOD=  1 TIMESTEP=881 LAYER=  1 ZONE=  2 ACTIVE CELLS= 8721 NUMBER OF EQUATIONS=    8721
 
 SOLVING FOR HEAD 

 NO OUTPUT CONTROL FOR STRESS PERIOD    1   TIME STEP  882
 SOLVING FOR ZETA FOR LAYER     1 ZONE     2

    4430 UPPER PART EQS.      4419 LOWER PART EQS.    BAND WIDTH + 1 =   92
 STRESS PERIOD=  1 TIMESTEP=882 LAYER=  1 ZONE=  2 ACTIVE CELLS= 8849 NUMBER OF EQUATIONS=    8849
 
 SOLVING FOR HEAD 

 NO OUTPUT CONTROL FOR STRESS PERIOD    1   TIME STEP  883
 SOLVING FOR ZETA FOR LAYER     1 ZONE     2

    4364 UPPER PART EQS.      4360 LOWER PART EQS.    BAND WIDTH + 1 =   90
 STRESS PERIOD=  1 TIMESTEP=883 LAYER=  1 ZONE=  2 ACTIVE CELLS= 8724 NUMBER OF EQUATIONS=    8724
 
 SOLVING FOR HEAD 

 NO OUTPUT CONTROL FOR STRESS PERIOD    1   TIME STEP  884
 SOLVING FOR ZETA FOR LAYER     1 ZONE     2

    4431 UPPER PART EQS.      4419 LOWER PART EQS.    BAND WIDTH + 1 =   93
 STRESS PERIOD=  1 TIMESTEP=884 LAYER=  1 ZONE=  2 ACTIVE CELLS= 8850 NUMBER OF EQUATIONS=    8850
 
 SOLVING FOR HEAD 

 NO OUTPUT CONTROL FOR STRESS PERIOD    1   TIME STEP  885
 SOLVING FOR ZETA FOR LAYER     1 ZONE     2

    4364 UPPER PART EQS.      4360 LOWER PART EQS.    BAND WIDTH + 1 =   90
 STRESS PERIOD=  1 TIMESTEP=885 LAYER=  1 ZONE=  2 ACTIVE CELLS= 8724 NUMBER OF EQUATIONS=    8724
 
 SOLVING FOR HEAD 

 NO OUTPUT CONTROL FOR STRESS PERIOD    1   TIME STEP  886
 SOLVING FOR ZETA FOR LAYER     1 ZONE     2

    4433 UPPER PART EQS.      4416 LOWER PART EQS.    BAND WIDTH + 1 =   93
 STRESS PERIOD=  1 TIMESTEP=886 LAYER=  1 ZONE=  2 ACTIVE CELLS= 8849 NUMBER OF EQUATIONS=    8849
 
 SOLVING FOR HEAD 

 NO OUTPUT CONTROL FOR STRESS PERIOD    1   TIME STEP  887
 SOLVING FOR ZETA FOR LAYER     1 ZONE     2

    4367 UPPER PART EQS.      4363 LOWER PART EQS.    BAND WIDTH + 1 =   90
 STRESS PERIOD=  1 TIMESTEP=887 LAYER=  1 ZONE=  2 ACTIVE CELLS= 8730 NUMBER OF EQUATIONS=    8730
 
 SOLVING FOR HEAD 

 NO OUTPUT CONTROL FOR STRESS PERIOD    1   TIME STEP  888
 SOLVING FOR ZETA FOR LAYER     1 ZONE     2

    4430 UPPER PART EQS.      4418 LOWER PART EQS.    BAND WIDTH + 1 =   91
 STRESS PERIOD=  1 TIMESTEP=888 LAYER=  1 ZONE=  2 ACTIVE CELLS= 8848 NUMBER OF EQUATIONS=    8848
 
 SOLVING FOR HEAD 

 NO OUTPUT CONTROL FOR STRESS PERIOD    1   TIME STEP  889
 SOLVING FOR ZETA FOR LAYER     1 ZONE     2

    4369 UPPER PART EQS.      4359 LOWER PART EQS.    BAND WIDTH + 1 =   91
 STRESS PERIOD=  1 TIMESTEP=889 LAYER=  1 ZONE=  2 ACTIVE CELLS= 8728 NUMBER OF EQUATIONS=    8728
 
 SOLVING FOR HEAD 

 NO OUTPUT CONTROL FOR STRESS PERIOD    1   TIME STEP  890
 SOLVING FOR ZETA FOR LAYER     1 ZONE     2

    4433 UPPER PART EQS.      4421 LOWER PART EQS.    BAND WIDTH + 1 =   92
 STRESS PERIOD=  1 TIMESTEP=890 LAYER=  1 ZONE=  2 ACTIVE CELLS= 8854 NUMBER OF EQUATIONS=    8854
 
 SOLVING FOR HEAD 

 NO OUTPUT CONTROL FOR STRESS PERIOD    1   TIME STEP  891
 SOLVING FOR ZETA FOR LAYER     1 ZONE     2

    4367 UPPER PART EQS.      4362 LOWER PART EQS.    BAND WIDTH + 1 =   89
 STRESS PERIOD=  1 TIMESTEP=891 LAYER=  1 ZONE=  2 ACTIVE CELLS= 8729 NUMBER OF EQUATIONS=    8729
 
 SOLVING FOR HEAD 

 NO OUTPUT CONTROL FOR STRESS PERIOD    1   TIME STEP  892
 SOLVING FOR ZETA FOR LAYER     1 ZONE     2

    4434 UPPER PART EQS.      4421 LOWER PART EQS.    BAND WIDTH + 1 =   94
 STRESS PERIOD=  1 TIMESTEP=892 LAYER=  1 ZONE=  2 ACTIVE CELLS= 8855 NUMBER OF EQUATIONS=    8855
 
 SOLVING FOR HEAD 

 NO OUTPUT CONTROL FOR STRESS PERIOD    1   TIME STEP  893
 SOLVING FOR ZETA FOR LAYER     1 ZONE     2

    4367 UPPER PART EQS.      4364 LOWER PART EQS.    BAND WIDTH + 1 =   92
 STRESS PERIOD=  1 TIMESTEP=893 LAYER=  1 ZONE=  2 ACTIVE CELLS= 8731 NUMBER OF EQUATIONS=    8731
 
 SOLVING FOR HEAD 

 NO OUTPUT CONTROL FOR STRESS PERIOD    1   TIME STEP  894
 SOLVING FOR ZETA FOR LAYER     1 ZONE     2

    4432 UPPER PART EQS.      4420 LOWER PART EQS.    BAND WIDTH + 1 =   93
 STRESS PERIOD=  1 TIMESTEP=894 LAYER=  1 ZONE=  2 ACTIVE CELLS= 8852 NUMBER OF EQUATIONS=    8852
 
 SOLVING FOR HEAD 

 NO OUTPUT CONTROL FOR STRESS PERIOD    1   TIME STEP  895
 SOLVING FOR ZETA FOR LAYER     1 ZONE     2

    4370 UPPER PART EQS.      4365 LOWER PART EQS.    BAND WIDTH + 1 =   91
 STRESS PERIOD=  1 TIMESTEP=895 LAYER=  1 ZONE=  2 ACTIVE CELLS= 8735 NUMBER OF EQUATIONS=    8735
 
 SOLVING FOR HEAD 

 NO OUTPUT CONTROL FOR STRESS PERIOD    1   TIME STEP  896
 SOLVING FOR ZETA FOR LAYER     1 ZONE     2

    4435 UPPER PART EQS.      4420 LOWER PART EQS.    BAND WIDTH + 1 =   92
 STRESS PERIOD=  1 TIMESTEP=896 LAYER=  1 ZONE=  2 ACTIVE CELLS= 8855 NUMBER OF EQUATIONS=    8855
 
 SOLVING FOR HEAD 

 NO OUTPUT CONTROL FOR STRESS PERIOD    1   TIME STEP  897
 SOLVING FOR ZETA FOR LAYER     1 ZONE     2

    4371 UPPER PART EQS.      4365 LOWER PART EQS.    BAND WIDTH + 1 =   90
 STRESS PERIOD=  1 TIMESTEP=897 LAYER=  1 ZONE=  2 ACTIVE CELLS= 8736 NUMBER OF EQUATIONS=    8736
 
 SOLVING FOR HEAD 

 NO OUTPUT CONTROL FOR STRESS PERIOD    1   TIME STEP  898
 SOLVING FOR ZETA FOR LAYER     1 ZONE     2

    4433 UPPER PART EQS.      4422 LOWER PART EQS.    BAND WIDTH + 1 =   91
 STRESS PERIOD=  1 TIMESTEP=898 LAYER=  1 ZONE=  2 ACTIVE CELLS= 8855 NUMBER OF EQUATIONS=    8855
 
 SOLVING FOR HEAD 

 NO OUTPUT CONTROL FOR STRESS PERIOD    1   TIME STEP  899
 SOLVING FOR ZETA FOR LAYER     1 ZONE     2

    4373 UPPER PART EQS.      4366 LOWER PART EQS.    BAND WIDTH + 1 =   90
 STRESS PERIOD=  1 TIMESTEP=899 LAYER=  1 ZONE=  2 ACTIVE CELLS= 8739 NUMBER OF EQUATIONS=    8739
 
 SOLVING FOR HEAD 

 NO OUTPUT CONTROL FOR STRESS PERIOD    1   TIME STEP  900
 SOLVING FOR ZETA FOR LAYER     1 ZONE     2

    4438 UPPER PART EQS.      4426 LOWER PART EQS.    BAND WIDTH + 1 =   93
 STRESS PERIOD=  1 TIMESTEP=900 LAYER=  1 ZONE=  2 ACTIVE CELLS= 8864 NUMBER OF EQUATIONS=    8864
 
 SOLVING FOR HEAD 

 NO OUTPUT CONTROL FOR STRESS PERIOD    1   TIME STEP  901
 SOLVING FOR ZETA FOR LAYER     1 ZONE     2

    4372 UPPER PART EQS.      4366 LOWER PART EQS.    BAND WIDTH + 1 =   91
 STRESS PERIOD=  1 TIMESTEP=901 LAYER=  1 ZONE=  2 ACTIVE CELLS= 8738 NUMBER OF EQUATIONS=    8738
 
 SOLVING FOR HEAD 

 NO OUTPUT CONTROL FOR STRESS PERIOD    1   TIME STEP  902
 SOLVING FOR ZETA FOR LAYER     1 ZONE     2

    4435 UPPER PART EQS.      4417 LOWER PART EQS.    BAND WIDTH + 1 =   91
 STRESS PERIOD=  1 TIMESTEP=902 LAYER=  1 ZONE=  2 ACTIVE CELLS= 8852 NUMBER OF EQUATIONS=    8852
 
 SOLVING FOR HEAD 

 NO OUTPUT CONTROL FOR STRESS PERIOD    1   TIME STEP  903
 SOLVING FOR ZETA FOR LAYER     1 ZONE     2

    4378 UPPER PART EQS.      4370 LOWER PART EQS.    BAND WIDTH + 1 =   89
 STRESS PERIOD=  1 TIMESTEP=903 LAYER=  1 ZONE=  2 ACTIVE CELLS= 8748 NUMBER OF EQUATIONS=    8748
 
 SOLVING FOR HEAD 

 NO OUTPUT CONTROL FOR STRESS PERIOD    1   TIME STEP  904
 SOLVING FOR ZETA FOR LAYER     1 ZONE     2

    4436 UPPER PART EQS.      4422 LOWER PART EQS.    BAND WIDTH + 1 =   91
 STRESS PERIOD=  1 TIMESTEP=904 LAYER=  1 ZONE=  2 ACTIVE CELLS= 8858 NUMBER OF EQUATIONS=    8858
 
 SOLVING FOR HEAD 

 NO OUTPUT CONTROL FOR STRESS PERIOD    1   TIME STEP  905
 SOLVING FOR ZETA FOR LAYER     1 ZONE     2

    4379 UPPER PART EQS.      4369 LOWER PART EQS.    BAND WIDTH + 1 =   91
 STRESS PERIOD=  1 TIMESTEP=905 LAYER=  1 ZONE=  2 ACTIVE CELLS= 8748 NUMBER OF EQUATIONS=    8748
 
 SOLVING FOR HEAD 

 NO OUTPUT CONTROL FOR STRESS PERIOD    1   TIME STEP  906
 SOLVING FOR ZETA FOR LAYER     1 ZONE     2

    4432 UPPER PART EQS.      4423 LOWER PART EQS.    BAND WIDTH + 1 =   91
 STRESS PERIOD=  1 TIMESTEP=906 LAYER=  1 ZONE=  2 ACTIVE CELLS= 8855 NUMBER OF EQUATIONS=    8855
 
 SOLVING FOR HEAD 

 NO OUTPUT CONTROL FOR STRESS PERIOD    1   TIME STEP  907
 SOLVING FOR ZETA FOR LAYER     1 ZONE     2

    4376 UPPER PART EQS.      4375 LOWER PART EQS.    BAND WIDTH + 1 =   89
 STRESS PERIOD=  1 TIMESTEP=907 LAYER=  1 ZONE=  2 ACTIVE CELLS= 8751 NUMBER OF EQUATIONS=    8751
 
 SOLVING FOR HEAD 

 NO OUTPUT CONTROL FOR STRESS PERIOD    1   TIME STEP  908
 SOLVING FOR ZETA FOR LAYER     1 ZONE     2

    4436 UPPER PART EQS.      4420 LOWER PART EQS.    BAND WIDTH + 1 =   92
 STRESS PERIOD=  1 TIMESTEP=908 LAYER=  1 ZONE=  2 ACTIVE CELLS= 8856 NUMBER OF EQUATIONS=    8856
 
 SOLVING FOR HEAD 

 NO OUTPUT CONTROL FOR STRESS PERIOD    1   TIME STEP  909
 SOLVING FOR ZETA FOR LAYER     1 ZONE     2

    4376 UPPER PART EQS.      4376 LOWER PART EQS.    BAND WIDTH + 1 =   91
 STRESS PERIOD=  1 TIMESTEP=909 LAYER=  1 ZONE=  2 ACTIVE CELLS= 8752 NUMBER OF EQUATIONS=    8752
 
 SOLVING FOR HEAD 

 NO OUTPUT CONTROL FOR STRESS PERIOD    1   TIME STEP  910
 SOLVING FOR ZETA FOR LAYER     1 ZONE     2

    4433 UPPER PART EQS.      4421 LOWER PART EQS.    BAND WIDTH + 1 =   93
 STRESS PERIOD=  1 TIMESTEP=910 LAYER=  1 ZONE=  2 ACTIVE CELLS= 8854 NUMBER OF EQUATIONS=    8854
 
 SOLVING FOR HEAD 

 NO OUTPUT CONTROL FOR STRESS PERIOD    1   TIME STEP  911
 SOLVING FOR ZETA FOR LAYER     1 ZONE     2

    4375 UPPER PART EQS.      4377 LOWER PART EQS.    BAND WIDTH + 1 =   90
 STRESS PERIOD=  1 TIMESTEP=911 LAYER=  1 ZONE=  2 ACTIVE CELLS= 8752 NUMBER OF EQUATIONS=    8752
 
 SOLVING FOR HEAD 

 NO OUTPUT CONTROL FOR STRESS PERIOD    1   TIME STEP  912
 SOLVING FOR ZETA FOR LAYER     1 ZONE     2

    4436 UPPER PART EQS.      4424 LOWER PART EQS.    BAND WIDTH + 1 =   93
 STRESS PERIOD=  1 TIMESTEP=912 LAYER=  1 ZONE=  2 ACTIVE CELLS= 8860 NUMBER OF EQUATIONS=    8860
 
 SOLVING FOR HEAD 

 NO OUTPUT CONTROL FOR STRESS PERIOD    1   TIME STEP  913
 SOLVING FOR ZETA FOR LAYER     1 ZONE     2

    4377 UPPER PART EQS.      4378 LOWER PART EQS.    BAND WIDTH + 1 =   93
 STRESS PERIOD=  1 TIMESTEP=913 LAYER=  1 ZONE=  2 ACTIVE CELLS= 8755 NUMBER OF EQUATIONS=    8755
 
 SOLVING FOR HEAD 

 NO OUTPUT CONTROL FOR STRESS PERIOD    1   TIME STEP  914
 SOLVING FOR ZETA FOR LAYER     1 ZONE     2

    4437 UPPER PART EQS.      4421 LOWER PART EQS.    BAND WIDTH + 1 =   93
 STRESS PERIOD=  1 TIMESTEP=914 LAYER=  1 ZONE=  2 ACTIVE CELLS= 8858 NUMBER OF EQUATIONS=    8858
 
 SOLVING FOR HEAD 

 NO OUTPUT CONTROL FOR STRESS PERIOD    1   TIME STEP  915
 SOLVING FOR ZETA FOR LAYER     1 ZONE     2

    4377 UPPER PART EQS.      4381 LOWER PART EQS.    BAND WIDTH + 1 =   92
 STRESS PERIOD=  1 TIMESTEP=915 LAYER=  1 ZONE=  2 ACTIVE CELLS= 8758 NUMBER OF EQUATIONS=    8758
 
 SOLVING FOR HEAD 

 NO OUTPUT CONTROL FOR STRESS PERIOD    1   TIME STEP  916
 SOLVING FOR ZETA FOR LAYER     1 ZONE     2

    4435 UPPER PART EQS.      4424 LOWER PART EQS.    BAND WIDTH + 1 =   93
 STRESS PERIOD=  1 TIMESTEP=916 LAYER=  1 ZONE=  2 ACTIVE CELLS= 8859 NUMBER OF EQUATIONS=    8859
 
 SOLVING FOR HEAD 

 NO OUTPUT CONTROL FOR STRESS PERIOD    1   TIME STEP  917
 SOLVING FOR ZETA FOR LAYER     1 ZONE     2

    4380 UPPER PART EQS.      4378 LOWER PART EQS.    BAND WIDTH + 1 =   92
 STRESS PERIOD=  1 TIMESTEP=917 LAYER=  1 ZONE=  2 ACTIVE CELLS= 8758 NUMBER OF EQUATIONS=    8758
 
 SOLVING FOR HEAD 

 NO OUTPUT CONTROL FOR STRESS PERIOD    1   TIME STEP  918
 SOLVING FOR ZETA FOR LAYER     1 ZONE     2

    4432 UPPER PART EQS.      4423 LOWER PART EQS.    BAND WIDTH + 1 =   92
 STRESS PERIOD=  1 TIMESTEP=918 LAYER=  1 ZONE=  2 ACTIVE CELLS= 8855 NUMBER OF EQUATIONS=    8855
 
 SOLVING FOR HEAD 

 NO OUTPUT CONTROL FOR STRESS PERIOD    1   TIME STEP  919
 SOLVING FOR ZETA FOR LAYER     1 ZONE     2

    4383 UPPER PART EQS.      4383 LOWER PART EQS.    BAND WIDTH + 1 =   91
 STRESS PERIOD=  1 TIMESTEP=919 LAYER=  1 ZONE=  2 ACTIVE CELLS= 8766 NUMBER OF EQUATIONS=    8766
 
 SOLVING FOR HEAD 

 NO OUTPUT CONTROL FOR STRESS PERIOD    1   TIME STEP  920
 SOLVING FOR ZETA FOR LAYER     1 ZONE     2

    4437 UPPER PART EQS.      4424 LOWER PART EQS.    BAND WIDTH + 1 =   93
 STRESS PERIOD=  1 TIMESTEP=920 LAYER=  1 ZONE=  2 ACTIVE CELLS= 8861 NUMBER OF EQUATIONS=    8861
 
 SOLVING FOR HEAD 

 NO OUTPUT CONTROL FOR STRESS PERIOD    1   TIME STEP  921
 SOLVING FOR ZETA FOR LAYER     1 ZONE     2

    4380 UPPER PART EQS.      4384 LOWER PART EQS.    BAND WIDTH + 1 =   95
 STRESS PERIOD=  1 TIMESTEP=921 LAYER=  1 ZONE=  2 ACTIVE CELLS= 8764 NUMBER OF EQUATIONS=    8764
 
 SOLVING FOR HEAD 

 NO OUTPUT CONTROL FOR STRESS PERIOD    1   TIME STEP  922
 SOLVING FOR ZETA FOR LAYER     1 ZONE     2

    4437 UPPER PART EQS.      4424 LOWER PART EQS.    BAND WIDTH + 1 =   94
 STRESS PERIOD=  1 TIMESTEP=922 LAYER=  1 ZONE=  2 ACTIVE CELLS= 8861 NUMBER OF EQUATIONS=    8861
 
 SOLVING FOR HEAD 

 NO OUTPUT CONTROL FOR STRESS PERIOD    1   TIME STEP  923
 SOLVING FOR ZETA FOR LAYER     1 ZONE     2

    4385 UPPER PART EQS.      4381 LOWER PART EQS.    BAND WIDTH + 1 =   93
 STRESS PERIOD=  1 TIMESTEP=923 LAYER=  1 ZONE=  2 ACTIVE CELLS= 8766 NUMBER OF EQUATIONS=    8766
 
 SOLVING FOR HEAD 

 NO OUTPUT CONTROL FOR STRESS PERIOD    1   TIME STEP  924
 SOLVING FOR ZETA FOR LAYER     1 ZONE     2

    4436 UPPER PART EQS.      4427 LOWER PART EQS.    BAND WIDTH + 1 =   92
 STRESS PERIOD=  1 TIMESTEP=924 LAYER=  1 ZONE=  2 ACTIVE CELLS= 8863 NUMBER OF EQUATIONS=    8863
 
 SOLVING FOR HEAD 

 NO OUTPUT CONTROL FOR STRESS PERIOD    1   TIME STEP  925
 SOLVING FOR ZETA FOR LAYER     1 ZONE     2

    4388 UPPER PART EQS.      4385 LOWER PART EQS.    BAND WIDTH + 1 =   92
 STRESS PERIOD=  1 TIMESTEP=925 LAYER=  1 ZONE=  2 ACTIVE CELLS= 8773 NUMBER OF EQUATIONS=    8773
 
 SOLVING FOR HEAD 

 NO OUTPUT CONTROL FOR STRESS PERIOD    1   TIME STEP  926
 SOLVING FOR ZETA FOR LAYER     1 ZONE     2

    4437 UPPER PART EQS.      4421 LOWER PART EQS.    BAND WIDTH + 1 =   94
 STRESS PERIOD=  1 TIMESTEP=926 LAYER=  1 ZONE=  2 ACTIVE CELLS= 8858 NUMBER OF EQUATIONS=    8858
 
 SOLVING FOR HEAD 

 NO OUTPUT CONTROL FOR STRESS PERIOD    1   TIME STEP  927
 SOLVING FOR ZETA FOR LAYER     1 ZONE     2

    4384 UPPER PART EQS.      4389 LOWER PART EQS.    BAND WIDTH + 1 =   93
 STRESS PERIOD=  1 TIMESTEP=927 LAYER=  1 ZONE=  2 ACTIVE CELLS= 8773 NUMBER OF EQUATIONS=    8773
 
 SOLVING FOR HEAD 

 NO OUTPUT CONTROL FOR STRESS PERIOD    1   TIME STEP  928
 SOLVING FOR ZETA FOR LAYER     1 ZONE     2

    4437 UPPER PART EQS.      4426 LOWER PART EQS.    BAND WIDTH + 1 =   93
 STRESS PERIOD=  1 TIMESTEP=928 LAYER=  1 ZONE=  2 ACTIVE CELLS= 8863 NUMBER OF EQUATIONS=    8863
 
 SOLVING FOR HEAD 

 NO OUTPUT CONTROL FOR STRESS PERIOD    1   TIME STEP  929
 SOLVING FOR ZETA FOR LAYER     1 ZONE     2

    4386 UPPER PART EQS.      4385 LOWER PART EQS.    BAND WIDTH + 1 =   92
 STRESS PERIOD=  1 TIMESTEP=929 LAYER=  1 ZONE=  2 ACTIVE CELLS= 8771 NUMBER OF EQUATIONS=    8771
 
 SOLVING FOR HEAD 

 NO OUTPUT CONTROL FOR STRESS PERIOD    1   TIME STEP  930
 SOLVING FOR ZETA FOR LAYER     1 ZONE     2

    4437 UPPER PART EQS.      4428 LOWER PART EQS.    BAND WIDTH + 1 =   93
 STRESS PERIOD=  1 TIMESTEP=930 LAYER=  1 ZONE=  2 ACTIVE CELLS= 8865 NUMBER OF EQUATIONS=    8865
 
 SOLVING FOR HEAD 

 NO OUTPUT CONTROL FOR STRESS PERIOD    1   TIME STEP  931
 SOLVING FOR ZETA FOR LAYER     1 ZONE     2

    4391 UPPER PART EQS.      4387 LOWER PART EQS.    BAND WIDTH + 1 =   90
 STRESS PERIOD=  1 TIMESTEP=931 LAYER=  1 ZONE=  2 ACTIVE CELLS= 8778 NUMBER OF EQUATIONS=    8778
 
 SOLVING FOR HEAD 

 NO OUTPUT CONTROL FOR STRESS PERIOD    1   TIME STEP  932
 SOLVING FOR ZETA FOR LAYER     1 ZONE     2

    4441 UPPER PART EQS.      4424 LOWER PART EQS.    BAND WIDTH + 1 =   94
 STRESS PERIOD=  1 TIMESTEP=932 LAYER=  1 ZONE=  2 ACTIVE CELLS= 8865 NUMBER OF EQUATIONS=    8865
 
 SOLVING FOR HEAD 

 NO OUTPUT CONTROL FOR STRESS PERIOD    1   TIME STEP  933
 SOLVING FOR ZETA FOR LAYER     1 ZONE     2

    4387 UPPER PART EQS.      4390 LOWER PART EQS.    BAND WIDTH + 1 =   92
 STRESS PERIOD=  1 TIMESTEP=933 LAYER=  1 ZONE=  2 ACTIVE CELLS= 8777 NUMBER OF EQUATIONS=    8777
 
 SOLVING FOR HEAD 

 NO OUTPUT CONTROL FOR STRESS PERIOD    1   TIME STEP  934
 SOLVING FOR ZETA FOR LAYER     1 ZONE     2

    4442 UPPER PART EQS.      4423 LOWER PART EQS.    BAND WIDTH + 1 =   95
 STRESS PERIOD=  1 TIMESTEP=934 LAYER=  1 ZONE=  2 ACTIVE CELLS= 8865 NUMBER OF EQUATIONS=    8865
 
 SOLVING FOR HEAD 

 NO OUTPUT CONTROL FOR STRESS PERIOD    1   TIME STEP  935
 SOLVING FOR ZETA FOR LAYER     1 ZONE     2

    4390 UPPER PART EQS.      4391 LOWER PART EQS.    BAND WIDTH + 1 =   89
 STRESS PERIOD=  1 TIMESTEP=935 LAYER=  1 ZONE=  2 ACTIVE CELLS= 8781 NUMBER OF EQUATIONS=    8781
 
 SOLVING FOR HEAD 

 NO OUTPUT CONTROL FOR STRESS PERIOD    1   TIME STEP  936
 SOLVING FOR ZETA FOR LAYER     1 ZONE     2

    4441 UPPER PART EQS.      4429 LOWER PART EQS.    BAND WIDTH + 1 =   94
 STRESS PERIOD=  1 TIMESTEP=936 LAYER=  1 ZONE=  2 ACTIVE CELLS= 8870 NUMBER OF EQUATIONS=    8870
 
 SOLVING FOR HEAD 

 NO OUTPUT CONTROL FOR STRESS PERIOD    1   TIME STEP  937
 SOLVING FOR ZETA FOR LAYER     1 ZONE     2

    4393 UPPER PART EQS.      4392 LOWER PART EQS.    BAND WIDTH + 1 =   89
 STRESS PERIOD=  1 TIMESTEP=937 LAYER=  1 ZONE=  2 ACTIVE CELLS= 8785 NUMBER OF EQUATIONS=    8785
 
 SOLVING FOR HEAD 

 NO OUTPUT CONTROL FOR STRESS PERIOD    1   TIME STEP  938
 SOLVING FOR ZETA FOR LAYER     1 ZONE     2

    4438 UPPER PART EQS.      4425 LOWER PART EQS.    BAND WIDTH + 1 =   94
 STRESS PERIOD=  1 TIMESTEP=938 LAYER=  1 ZONE=  2 ACTIVE CELLS= 8863 NUMBER OF EQUATIONS=    8863
 
 SOLVING FOR HEAD 

 NO OUTPUT CONTROL FOR STRESS PERIOD    1   TIME STEP  939
 SOLVING FOR ZETA FOR LAYER     1 ZONE     2

    4394 UPPER PART EQS.      4392 LOWER PART EQS.    BAND WIDTH + 1 =   90
 STRESS PERIOD=  1 TIMESTEP=939 LAYER=  1 ZONE=  2 ACTIVE CELLS= 8786 NUMBER OF EQUATIONS=    8786
 
 SOLVING FOR HEAD 

 NO OUTPUT CONTROL FOR STRESS PERIOD    1   TIME STEP  940
 SOLVING FOR ZETA FOR LAYER     1 ZONE     2

    4443 UPPER PART EQS.      4429 LOWER PART EQS.    BAND WIDTH + 1 =   94
 STRESS PERIOD=  1 TIMESTEP=940 LAYER=  1 ZONE=  2 ACTIVE CELLS= 8872 NUMBER OF EQUATIONS=    8872
 
 SOLVING FOR HEAD 

 NO OUTPUT CONTROL FOR STRESS PERIOD    1   TIME STEP  941
 SOLVING FOR ZETA FOR LAYER     1 ZONE     2

    4390 UPPER PART EQS.      4387 LOWER PART EQS.    BAND WIDTH + 1 =   92
 STRESS PERIOD=  1 TIMESTEP=941 LAYER=  1 ZONE=  2 ACTIVE CELLS= 8777 NUMBER OF EQUATIONS=    8777
 
 SOLVING FOR HEAD 

 NO OUTPUT CONTROL FOR STRESS PERIOD    1   TIME STEP  942
 SOLVING FOR ZETA FOR LAYER     1 ZONE     2

    4441 UPPER PART EQS.      4428 LOWER PART EQS.    BAND WIDTH + 1 =   94
 STRESS PERIOD=  1 TIMESTEP=942 LAYER=  1 ZONE=  2 ACTIVE CELLS= 8869 NUMBER OF EQUATIONS=    8869
 
 SOLVING FOR HEAD 

 NO OUTPUT CONTROL FOR STRESS PERIOD    1   TIME STEP  943
 SOLVING FOR ZETA FOR LAYER     1 ZONE     2

    4396 UPPER PART EQS.      4398 LOWER PART EQS.    BAND WIDTH + 1 =   92
 STRESS PERIOD=  1 TIMESTEP=943 LAYER=  1 ZONE=  2 ACTIVE CELLS= 8794 NUMBER OF EQUATIONS=    8794
 
 SOLVING FOR HEAD 

 NO OUTPUT CONTROL FOR STRESS PERIOD    1   TIME STEP  944
 SOLVING FOR ZETA FOR LAYER     1 ZONE     2

    4445 UPPER PART EQS.      4430 LOWER PART EQS.    BAND WIDTH + 1 =   94
 STRESS PERIOD=  1 TIMESTEP=944 LAYER=  1 ZONE=  2 ACTIVE CELLS= 8875 NUMBER OF EQUATIONS=    8875
 
 SOLVING FOR HEAD 

 NO OUTPUT CONTROL FOR STRESS PERIOD    1   TIME STEP  945
 SOLVING FOR ZETA FOR LAYER     1 ZONE     2

    4395 UPPER PART EQS.      4396 LOWER PART EQS.    BAND WIDTH + 1 =   92
 STRESS PERIOD=  1 TIMESTEP=945 LAYER=  1 ZONE=  2 ACTIVE CELLS= 8791 NUMBER OF EQUATIONS=    8791
 
 SOLVING FOR HEAD 

 NO OUTPUT CONTROL FOR STRESS PERIOD    1   TIME STEP  946
 SOLVING FOR ZETA FOR LAYER     1 ZONE     2

    4442 UPPER PART EQS.      4430 LOWER PART EQS.    BAND WIDTH + 1 =   93
 STRESS PERIOD=  1 TIMESTEP=946 LAYER=  1 ZONE=  2 ACTIVE CELLS= 8872 NUMBER OF EQUATIONS=    8872
 
 SOLVING FOR HEAD 

 NO OUTPUT CONTROL FOR STRESS PERIOD    1   TIME STEP  947
 SOLVING FOR ZETA FOR LAYER     1 ZONE     2

    4396 UPPER PART EQS.      4396 LOWER PART EQS.    BAND WIDTH + 1 =   92
 STRESS PERIOD=  1 TIMESTEP=947 LAYER=  1 ZONE=  2 ACTIVE CELLS= 8792 NUMBER OF EQUATIONS=    8792
 
 SOLVING FOR HEAD 

 NO OUTPUT CONTROL FOR STRESS PERIOD    1   TIME STEP  948
 SOLVING FOR ZETA FOR LAYER     1 ZONE     2

    4446 UPPER PART EQS.      4433 LOWER PART EQS.    BAND WIDTH + 1 =   95
 STRESS PERIOD=  1 TIMESTEP=948 LAYER=  1 ZONE=  2 ACTIVE CELLS= 8879 NUMBER OF EQUATIONS=    8879
 
 SOLVING FOR HEAD 

 NO OUTPUT CONTROL FOR STRESS PERIOD    1   TIME STEP  949
 SOLVING FOR ZETA FOR LAYER     1 ZONE     2

    4397 UPPER PART EQS.      4395 LOWER PART EQS.    BAND WIDTH + 1 =   93
 STRESS PERIOD=  1 TIMESTEP=949 LAYER=  1 ZONE=  2 ACTIVE CELLS= 8792 NUMBER OF EQUATIONS=    8792
 
 SOLVING FOR HEAD 

 NO OUTPUT CONTROL FOR STRESS PERIOD    1   TIME STEP  950
 SOLVING FOR ZETA FOR LAYER     1 ZONE     2

    4439 UPPER PART EQS.      4426 LOWER PART EQS.    BAND WIDTH + 1 =   93
 STRESS PERIOD=  1 TIMESTEP=950 LAYER=  1 ZONE=  2 ACTIVE CELLS= 8865 NUMBER OF EQUATIONS=    8865
 
 SOLVING FOR HEAD 

 NO OUTPUT CONTROL FOR STRESS PERIOD    1   TIME STEP  951
 SOLVING FOR ZETA FOR LAYER     1 ZONE     2

    4399 UPPER PART EQS.      4398 LOWER PART EQS.    BAND WIDTH + 1 =   91
 STRESS PERIOD=  1 TIMESTEP=951 LAYER=  1 ZONE=  2 ACTIVE CELLS= 8797 NUMBER OF EQUATIONS=    8797
 
 SOLVING FOR HEAD 

 NO OUTPUT CONTROL FOR STRESS PERIOD    1   TIME STEP  952
 SOLVING FOR ZETA FOR LAYER     1 ZONE     2

    4446 UPPER PART EQS.      4434 LOWER PART EQS.    BAND WIDTH + 1 =   93
 STRESS PERIOD=  1 TIMESTEP=952 LAYER=  1 ZONE=  2 ACTIVE CELLS= 8880 NUMBER OF EQUATIONS=    8880
 
 SOLVING FOR HEAD 

 NO OUTPUT CONTROL FOR STRESS PERIOD    1   TIME STEP  953
 SOLVING FOR ZETA FOR LAYER     1 ZONE     2

    4397 UPPER PART EQS.      4391 LOWER PART EQS.    BAND WIDTH + 1 =   93
 STRESS PERIOD=  1 TIMESTEP=953 LAYER=  1 ZONE=  2 ACTIVE CELLS= 8788 NUMBER OF EQUATIONS=    8788
 
 SOLVING FOR HEAD 

 NO OUTPUT CONTROL FOR STRESS PERIOD    1   TIME STEP  954
 SOLVING FOR ZETA FOR LAYER     1 ZONE     2

    4444 UPPER PART EQS.      4430 LOWER PART EQS.    BAND WIDTH + 1 =   93
 STRESS PERIOD=  1 TIMESTEP=954 LAYER=  1 ZONE=  2 ACTIVE CELLS= 8874 NUMBER OF EQUATIONS=    8874
 
 SOLVING FOR HEAD 

 NO OUTPUT CONTROL FOR STRESS PERIOD    1   TIME STEP  955
 SOLVING FOR ZETA FOR LAYER     1 ZONE     2

    4399 UPPER PART EQS.      4401 LOWER PART EQS.    BAND WIDTH + 1 =   93
 STRESS PERIOD=  1 TIMESTEP=955 LAYER=  1 ZONE=  2 ACTIVE CELLS= 8800 NUMBER OF EQUATIONS=    8800
 
 SOLVING FOR HEAD 

 NO OUTPUT CONTROL FOR STRESS PERIOD    1   TIME STEP  956
 SOLVING FOR ZETA FOR LAYER     1 ZONE     2

    4447 UPPER PART EQS.      4437 LOWER PART EQS.    BAND WIDTH + 1 =   93
 STRESS PERIOD=  1 TIMESTEP=956 LAYER=  1 ZONE=  2 ACTIVE CELLS= 8884 NUMBER OF EQUATIONS=    8884
 
 SOLVING FOR HEAD 

 NO OUTPUT CONTROL FOR STRESS PERIOD    1   TIME STEP  957
 SOLVING FOR ZETA FOR LAYER     1 ZONE     2

    4394 UPPER PART EQS.      4397 LOWER PART EQS.    BAND WIDTH + 1 =   94
 STRESS PERIOD=  1 TIMESTEP=957 LAYER=  1 ZONE=  2 ACTIVE CELLS= 8791 NUMBER OF EQUATIONS=    8791
 
 SOLVING FOR HEAD 

 NO OUTPUT CONTROL FOR STRESS PERIOD    1   TIME STEP  958
 SOLVING FOR ZETA FOR LAYER     1 ZONE     2

    4447 UPPER PART EQS.      4436 LOWER PART EQS.    BAND WIDTH + 1 =   94
 STRESS PERIOD=  1 TIMESTEP=958 LAYER=  1 ZONE=  2 ACTIVE CELLS= 8883 NUMBER OF EQUATIONS=    8883
 
 SOLVING FOR HEAD 

 NO OUTPUT CONTROL FOR STRESS PERIOD    1   TIME STEP  959
 SOLVING FOR ZETA FOR LAYER     1 ZONE     2

    4399 UPPER PART EQS.      4398 LOWER PART EQS.    BAND WIDTH + 1 =   91
 STRESS PERIOD=  1 TIMESTEP=959 LAYER=  1 ZONE=  2 ACTIVE CELLS= 8797 NUMBER OF EQUATIONS=    8797
 
 SOLVING FOR HEAD 

 NO OUTPUT CONTROL FOR STRESS PERIOD    1   TIME STEP  960
 SOLVING FOR ZETA FOR LAYER     1 ZONE     2

    4448 UPPER PART EQS.      4435 LOWER PART EQS.    BAND WIDTH + 1 =   92
 STRESS PERIOD=  1 TIMESTEP=960 LAYER=  1 ZONE=  2 ACTIVE CELLS= 8883 NUMBER OF EQUATIONS=    8883
 
 SOLVING FOR HEAD 

 NO OUTPUT CONTROL FOR STRESS PERIOD    1   TIME STEP  961
 SOLVING FOR ZETA FOR LAYER     1 ZONE     2

    4400 UPPER PART EQS.      4400 LOWER PART EQS.    BAND WIDTH + 1 =   92
 STRESS PERIOD=  1 TIMESTEP=961 LAYER=  1 ZONE=  2 ACTIVE CELLS= 8800 NUMBER OF EQUATIONS=    8800
 
 SOLVING FOR HEAD 

 NO OUTPUT CONTROL FOR STRESS PERIOD    1   TIME STEP  962
 SOLVING FOR ZETA FOR LAYER     1 ZONE     2

    4447 UPPER PART EQS.      4435 LOWER PART EQS.    BAND WIDTH + 1 =   92
 STRESS PERIOD=  1 TIMESTEP=962 LAYER=  1 ZONE=  2 ACTIVE CELLS= 8882 NUMBER OF EQUATIONS=    8882
 
 SOLVING FOR HEAD 

 NO OUTPUT CONTROL FOR STRESS PERIOD    1   TIME STEP  963
 SOLVING FOR ZETA FOR LAYER     1 ZONE     2

    4400 UPPER PART EQS.      4402 LOWER PART EQS.    BAND WIDTH + 1 =   90
 STRESS PERIOD=  1 TIMESTEP=963 LAYER=  1 ZONE=  2 ACTIVE CELLS= 8802 NUMBER OF EQUATIONS=    8802
 
 SOLVING FOR HEAD 

 NO OUTPUT CONTROL FOR STRESS PERIOD    1   TIME STEP  964
 SOLVING FOR ZETA FOR LAYER     1 ZONE     2

    4453 UPPER PART EQS.      4441 LOWER PART EQS.    BAND WIDTH + 1 =   91
 STRESS PERIOD=  1 TIMESTEP=964 LAYER=  1 ZONE=  2 ACTIVE CELLS= 8894 NUMBER OF EQUATIONS=    8894
 
 SOLVING FOR HEAD 

 NO OUTPUT CONTROL FOR STRESS PERIOD    1   TIME STEP  965
 SOLVING FOR ZETA FOR LAYER     1 ZONE     2

    4400 UPPER PART EQS.      4398 LOWER PART EQS.    BAND WIDTH + 1 =   91
 STRESS PERIOD=  1 TIMESTEP=965 LAYER=  1 ZONE=  2 ACTIVE CELLS= 8798 NUMBER OF EQUATIONS=    8798
 
 SOLVING FOR HEAD 

 NO OUTPUT CONTROL FOR STRESS PERIOD    1   TIME STEP  966
 SOLVING FOR ZETA FOR LAYER     1 ZONE     2

    4450 UPPER PART EQS.      4440 LOWER PART EQS.    BAND WIDTH + 1 =   92
 STRESS PERIOD=  1 TIMESTEP=966 LAYER=  1 ZONE=  2 ACTIVE CELLS= 8890 NUMBER OF EQUATIONS=    8890
 
 SOLVING FOR HEAD 

 NO OUTPUT CONTROL FOR STRESS PERIOD    1   TIME STEP  967
 SOLVING FOR ZETA FOR LAYER     1 ZONE     2

    4402 UPPER PART EQS.      4406 LOWER PART EQS.    BAND WIDTH + 1 =   91
 STRESS PERIOD=  1 TIMESTEP=967 LAYER=  1 ZONE=  2 ACTIVE CELLS= 8808 NUMBER OF EQUATIONS=    8808
 
 SOLVING FOR HEAD 

 NO OUTPUT CONTROL FOR STRESS PERIOD    1   TIME STEP  968
 SOLVING FOR ZETA FOR LAYER     1 ZONE     2

    4455 UPPER PART EQS.      4438 LOWER PART EQS.    BAND WIDTH + 1 =   92
 STRESS PERIOD=  1 TIMESTEP=968 LAYER=  1 ZONE=  2 ACTIVE CELLS= 8893 NUMBER OF EQUATIONS=    8893
 
 SOLVING FOR HEAD 

 NO OUTPUT CONTROL FOR STRESS PERIOD    1   TIME STEP  969
 SOLVING FOR ZETA FOR LAYER     1 ZONE     2

    4402 UPPER PART EQS.      4404 LOWER PART EQS.    BAND WIDTH + 1 =   93
 STRESS PERIOD=  1 TIMESTEP=969 LAYER=  1 ZONE=  2 ACTIVE CELLS= 8806 NUMBER OF EQUATIONS=    8806
 
 SOLVING FOR HEAD 

 NO OUTPUT CONTROL FOR STRESS PERIOD    1   TIME STEP  970
 SOLVING FOR ZETA FOR LAYER     1 ZONE     2

    4453 UPPER PART EQS.      4438 LOWER PART EQS.    BAND WIDTH + 1 =   93
 STRESS PERIOD=  1 TIMESTEP=970 LAYER=  1 ZONE=  2 ACTIVE CELLS= 8891 NUMBER OF EQUATIONS=    8891
 
 SOLVING FOR HEAD 

 NO OUTPUT CONTROL FOR STRESS PERIOD    1   TIME STEP  971
 SOLVING FOR ZETA FOR LAYER     1 ZONE     2

    4402 UPPER PART EQS.      4405 LOWER PART EQS.    BAND WIDTH + 1 =   92
 STRESS PERIOD=  1 TIMESTEP=971 LAYER=  1 ZONE=  2 ACTIVE CELLS= 8807 NUMBER OF EQUATIONS=    8807
 
 SOLVING FOR HEAD 

 NO OUTPUT CONTROL FOR STRESS PERIOD    1   TIME STEP  972
 SOLVING FOR ZETA FOR LAYER     1 ZONE     2

    4452 UPPER PART EQS.      4435 LOWER PART EQS.    BAND WIDTH + 1 =   91
 STRESS PERIOD=  1 TIMESTEP=972 LAYER=  1 ZONE=  2 ACTIVE CELLS= 8887 NUMBER OF EQUATIONS=    8887
 
 SOLVING FOR HEAD 

 NO OUTPUT CONTROL FOR STRESS PERIOD    1   TIME STEP  973
 SOLVING FOR ZETA FOR LAYER     1 ZONE     2

    4405 UPPER PART EQS.      4407 LOWER PART EQS.    BAND WIDTH + 1 =   91
 STRESS PERIOD=  1 TIMESTEP=973 LAYER=  1 ZONE=  2 ACTIVE CELLS= 8812 NUMBER OF EQUATIONS=    8812
 
 SOLVING FOR HEAD 

 NO OUTPUT CONTROL FOR STRESS PERIOD    1   TIME STEP  974
 SOLVING FOR ZETA FOR LAYER     1 ZONE     2

    4452 UPPER PART EQS.      4438 LOWER PART EQS.    BAND WIDTH + 1 =   91
 STRESS PERIOD=  1 TIMESTEP=974 LAYER=  1 ZONE=  2 ACTIVE CELLS= 8890 NUMBER OF EQUATIONS=    8890
 
 SOLVING FOR HEAD 

 NO OUTPUT CONTROL FOR STRESS PERIOD    1   TIME STEP  975
 SOLVING FOR ZETA FOR LAYER     1 ZONE     2

    4404 UPPER PART EQS.      4408 LOWER PART EQS.    BAND WIDTH + 1 =   93
 STRESS PERIOD=  1 TIMESTEP=975 LAYER=  1 ZONE=  2 ACTIVE CELLS= 8812 NUMBER OF EQUATIONS=    8812
 
 SOLVING FOR HEAD 

 NO OUTPUT CONTROL FOR STRESS PERIOD    1   TIME STEP  976
 SOLVING FOR ZETA FOR LAYER     1 ZONE     2

    4454 UPPER PART EQS.      4437 LOWER PART EQS.    BAND WIDTH + 1 =   91
 STRESS PERIOD=  1 TIMESTEP=976 LAYER=  1 ZONE=  2 ACTIVE CELLS= 8891 NUMBER OF EQUATIONS=    8891
 
 SOLVING FOR HEAD 

 NO OUTPUT CONTROL FOR STRESS PERIOD    1   TIME STEP  977
 SOLVING FOR ZETA FOR LAYER     1 ZONE     2

    4404 UPPER PART EQS.      4409 LOWER PART EQS.    BAND WIDTH + 1 =   93
 STRESS PERIOD=  1 TIMESTEP=977 LAYER=  1 ZONE=  2 ACTIVE CELLS= 8813 NUMBER OF EQUATIONS=    8813
 
 SOLVING FOR HEAD 

 NO OUTPUT CONTROL FOR STRESS PERIOD    1   TIME STEP  978
 SOLVING FOR ZETA FOR LAYER     1 ZONE     2

    4452 UPPER PART EQS.      4437 LOWER PART EQS.    BAND WIDTH + 1 =   90
 STRESS PERIOD=  1 TIMESTEP=978 LAYER=  1 ZONE=  2 ACTIVE CELLS= 8889 NUMBER OF EQUATIONS=    8889
 
 SOLVING FOR HEAD 

 NO OUTPUT CONTROL FOR STRESS PERIOD    1   TIME STEP  979
 SOLVING FOR ZETA FOR LAYER     1 ZONE     2

    4403 UPPER PART EQS.      4411 LOWER PART EQS.    BAND WIDTH + 1 =   90
 STRESS PERIOD=  1 TIMESTEP=979 LAYER=  1 ZONE=  2 ACTIVE CELLS= 8814 NUMBER OF EQUATIONS=    8814
 
 SOLVING FOR HEAD 

 NO OUTPUT CONTROL FOR STRESS PERIOD    1   TIME STEP  980
 SOLVING FOR ZETA FOR LAYER     1 ZONE     2

    4453 UPPER PART EQS.      4436 LOWER PART EQS.    BAND WIDTH + 1 =   91
 STRESS PERIOD=  1 TIMESTEP=980 LAYER=  1 ZONE=  2 ACTIVE CELLS= 8889 NUMBER OF EQUATIONS=    8889
 
 SOLVING FOR HEAD 

 NO OUTPUT CONTROL FOR STRESS PERIOD    1   TIME STEP  981
 SOLVING FOR ZETA FOR LAYER     1 ZONE     2

    4406 UPPER PART EQS.      4414 LOWER PART EQS.    BAND WIDTH + 1 =   91
 STRESS PERIOD=  1 TIMESTEP=981 LAYER=  1 ZONE=  2 ACTIVE CELLS= 8820 NUMBER OF EQUATIONS=    8820
 
 SOLVING FOR HEAD 

 NO OUTPUT CONTROL FOR STRESS PERIOD    1   TIME STEP  982
 SOLVING FOR ZETA FOR LAYER     1 ZONE     2

    4451 UPPER PART EQS.      4439 LOWER PART EQS.    BAND WIDTH + 1 =   90
 STRESS PERIOD=  1 TIMESTEP=982 LAYER=  1 ZONE=  2 ACTIVE CELLS= 8890 NUMBER OF EQUATIONS=    8890
 
 SOLVING FOR HEAD 

 NO OUTPUT CONTROL FOR STRESS PERIOD    1   TIME STEP  983
 SOLVING FOR ZETA FOR LAYER     1 ZONE     2

    4410 UPPER PART EQS.      4411 LOWER PART EQS.    BAND WIDTH + 1 =   91
 STRESS PERIOD=  1 TIMESTEP=983 LAYER=  1 ZONE=  2 ACTIVE CELLS= 8821 NUMBER OF EQUATIONS=    8821
 
 SOLVING FOR HEAD 

 NO OUTPUT CONTROL FOR STRESS PERIOD    1   TIME STEP  984
 SOLVING FOR ZETA FOR LAYER     1 ZONE     2

    4451 UPPER PART EQS.      4436 LOWER PART EQS.    BAND WIDTH + 1 =   91
 STRESS PERIOD=  1 TIMESTEP=984 LAYER=  1 ZONE=  2 ACTIVE CELLS= 8887 NUMBER OF EQUATIONS=    8887
 
 SOLVING FOR HEAD 

 NO OUTPUT CONTROL FOR STRESS PERIOD    1   TIME STEP  985
 SOLVING FOR ZETA FOR LAYER     1 ZONE     2

    4409 UPPER PART EQS.      4412 LOWER PART EQS.    BAND WIDTH + 1 =   92
 STRESS PERIOD=  1 TIMESTEP=985 LAYER=  1 ZONE=  2 ACTIVE CELLS= 8821 NUMBER OF EQUATIONS=    8821
 
 SOLVING FOR HEAD 

 NO OUTPUT CONTROL FOR STRESS PERIOD    1   TIME STEP  986
 SOLVING FOR ZETA FOR LAYER     1 ZONE     2

    4449 UPPER PART EQS.      4442 LOWER PART EQS.    BAND WIDTH + 1 =   90
 STRESS PERIOD=  1 TIMESTEP=986 LAYER=  1 ZONE=  2 ACTIVE CELLS= 8891 NUMBER OF EQUATIONS=    8891
 
 SOLVING FOR HEAD 

 NO OUTPUT CONTROL FOR STRESS PERIOD    1   TIME STEP  987
 SOLVING FOR ZETA FOR LAYER     1 ZONE     2

    4413 UPPER PART EQS.      4412 LOWER PART EQS.    BAND WIDTH + 1 =   90
 STRESS PERIOD=  1 TIMESTEP=987 LAYER=  1 ZONE=  2 ACTIVE CELLS= 8825 NUMBER OF EQUATIONS=    8825
 
 SOLVING FOR HEAD 

 NO OUTPUT CONTROL FOR STRESS PERIOD    1   TIME STEP  988
 SOLVING FOR ZETA FOR LAYER     1 ZONE     2

    4451 UPPER PART EQS.      4444 LOWER PART EQS.    BAND WIDTH + 1 =   90
 STRESS PERIOD=  1 TIMESTEP=988 LAYER=  1 ZONE=  2 ACTIVE CELLS= 8895 NUMBER OF EQUATIONS=    8895
 
 SOLVING FOR HEAD 

 NO OUTPUT CONTROL FOR STRESS PERIOD    1   TIME STEP  989
 SOLVING FOR ZETA FOR LAYER     1 ZONE     2

    4409 UPPER PART EQS.      4411 LOWER PART EQS.    BAND WIDTH + 1 =   94
 STRESS PERIOD=  1 TIMESTEP=989 LAYER=  1 ZONE=  2 ACTIVE CELLS= 8820 NUMBER OF EQUATIONS=    8820
 
 SOLVING FOR HEAD 

 NO OUTPUT CONTROL FOR STRESS PERIOD    1   TIME STEP  990
 SOLVING FOR ZETA FOR LAYER     1 ZONE     2

    4453 UPPER PART EQS.      4441 LOWER PART EQS.    BAND WIDTH + 1 =   92
 STRESS PERIOD=  1 TIMESTEP=990 LAYER=  1 ZONE=  2 ACTIVE CELLS= 8894 NUMBER OF EQUATIONS=    8894
 
 SOLVING FOR HEAD 

 NO OUTPUT CONTROL FOR STRESS PERIOD    1   TIME STEP  991
 SOLVING FOR ZETA FOR LAYER     1 ZONE     2

    4407 UPPER PART EQS.      4417 LOWER PART EQS.    BAND WIDTH + 1 =   93
 STRESS PERIOD=  1 TIMESTEP=991 LAYER=  1 ZONE=  2 ACTIVE CELLS= 8824 NUMBER OF EQUATIONS=    8824
 
 SOLVING FOR HEAD 

 NO OUTPUT CONTROL FOR STRESS PERIOD    1   TIME STEP  992
 SOLVING FOR ZETA FOR LAYER     1 ZONE     2

    4458 UPPER PART EQS.      4444 LOWER PART EQS.    BAND WIDTH + 1 =   91
 STRESS PERIOD=  1 TIMESTEP=992 LAYER=  1 ZONE=  2 ACTIVE CELLS= 8902 NUMBER OF EQUATIONS=    8902
 
 SOLVING FOR HEAD 

 NO OUTPUT CONTROL FOR STRESS PERIOD    1   TIME STEP  993
 SOLVING FOR ZETA FOR LAYER     1 ZONE     2

    4410 UPPER PART EQS.      4414 LOWER PART EQS.    BAND WIDTH + 1 =   94
 STRESS PERIOD=  1 TIMESTEP=993 LAYER=  1 ZONE=  2 ACTIVE CELLS= 8824 NUMBER OF EQUATIONS=    8824
 
 SOLVING FOR HEAD 

 NO OUTPUT CONTROL FOR STRESS PERIOD    1   TIME STEP  994
 SOLVING FOR ZETA FOR LAYER     1 ZONE     2

    4455 UPPER PART EQS.      4446 LOWER PART EQS.    BAND WIDTH + 1 =   90
 STRESS PERIOD=  1 TIMESTEP=994 LAYER=  1 ZONE=  2 ACTIVE CELLS= 8901 NUMBER OF EQUATIONS=    8901
 
 SOLVING FOR HEAD 

 NO OUTPUT CONTROL FOR STRESS PERIOD    1   TIME STEP  995
 SOLVING FOR ZETA FOR LAYER     1 ZONE     2

    4411 UPPER PART EQS.      4419 LOWER PART EQS.    BAND WIDTH + 1 =   92
 STRESS PERIOD=  1 TIMESTEP=995 LAYER=  1 ZONE=  2 ACTIVE CELLS= 8830 NUMBER OF EQUATIONS=    8830
 
 SOLVING FOR HEAD 

 NO OUTPUT CONTROL FOR STRESS PERIOD    1   TIME STEP  996
 SOLVING FOR ZETA FOR LAYER     1 ZONE     2

    4456 UPPER PART EQS.      4444 LOWER PART EQS.    BAND WIDTH + 1 =   90
 STRESS PERIOD=  1 TIMESTEP=996 LAYER=  1 ZONE=  2 ACTIVE CELLS= 8900 NUMBER OF EQUATIONS=    8900
 
 SOLVING FOR HEAD 

 NO OUTPUT CONTROL FOR STRESS PERIOD    1   TIME STEP  997
 SOLVING FOR ZETA FOR LAYER     1 ZONE     2

    4413 UPPER PART EQS.      4420 LOWER PART EQS.    BAND WIDTH + 1 =   93
 STRESS PERIOD=  1 TIMESTEP=997 LAYER=  1 ZONE=  2 ACTIVE CELLS= 8833 NUMBER OF EQUATIONS=    8833
 
 SOLVING FOR HEAD 

 NO OUTPUT CONTROL FOR STRESS PERIOD    1   TIME STEP  998
 SOLVING FOR ZETA FOR LAYER     1 ZONE     2

    4455 UPPER PART EQS.      4445 LOWER PART EQS.    BAND WIDTH + 1 =   90
 STRESS PERIOD=  1 TIMESTEP=998 LAYER=  1 ZONE=  2 ACTIVE CELLS= 8900 NUMBER OF EQUATIONS=    8900
 
 SOLVING FOR HEAD 

 NO OUTPUT CONTROL FOR STRESS PERIOD    1   TIME STEP  999
 SOLVING FOR ZETA FOR LAYER     1 ZONE     2

    4410 UPPER PART EQS.      4421 LOWER PART EQS.    BAND WIDTH + 1 =   93
 STRESS PERIOD=  1 TIMESTEP=999 LAYER=  1 ZONE=  2 ACTIVE CELLS= 8831 NUMBER OF EQUATIONS=    8831
 
 SOLVING FOR HEAD 

 OUTPUT CONTROL FOR STRESS PERIOD    1   TIME STEP 1000
    PRINT BUDGET
    SAVE HEAD FOR ALL LAYERS
 SOLVING FOR ZETA FOR LAYER     1 ZONE     2

    4460 UPPER PART EQS.      4446 LOWER PART EQS.    BAND WIDTH + 1 =   91
 STRESS PERIOD=  1 TIMESTEP=*** LAYER=  1 ZONE=  2 ACTIVE CELLS= 8906 NUMBER OF EQUATIONS=    8906
 UBUDSV SAVING "      ZETASRF  1" ON UNIT 55 AT TIME STEP***, STRESS PERIOD    1


                      VOLUMETRIC SWI ZONE BUDGET FOR ENTIRE MODEL
                     AT END OF TIME STEP 1000 IN STRESS PERIOD   1
                                      ZONE     1
  -----------------------------------------------------------------------------------

        CUMULATIVE VOLUMES      L**3       RATES FOR THIS TIME STEP      L**3/T
        ------------------                 ------------------------

              IN:                                      IN:
              ---                                      ---
             BOUNDARIES = 44408856576.0000            BOUNDARIES =      607926.9375
          CONSTANT HEAD =           0.0000         CONSTANT HEAD =           0.0000
            ZONE CHANGE =  4338153472.0000           ZONE CHANGE =        4819.7896
       ZONE CHG TIP/TOE =    63832044.0000      ZONE CHG TIP/TOE =         517.4663
            ZONE MIXING =           0.0000           ZONE MIXING =           0.0000

               TOTAL IN = 48810844160.0000              TOTAL IN =      613264.1875

             OUT:                                     OUT:
             ----                                     ----
             BOUNDARIES = 34426851328.0000            BOUNDARIES =      540963.0000
          CONSTANT HEAD =           0.0000         CONSTANT HEAD =           0.0000
            ZONE CHANGE = 14846938112.0000           ZONE CHANGE =       75698.0703
       ZONE CHG TIP/TOE =    44822092.0000      ZONE CHG TIP/TOE =         386.7439
            ZONE MIXING =           0.0000           ZONE MIXING =           0.0000

              TOTAL OUT = 49318612992.0000             TOTAL OUT =      617047.8125

               IN - OUT =  -507768832.0000              IN - OUT =       -3783.6250

    PERCENT DISCREPANCY =          -1.03     PERCENT DISCREPANCY =          -0.62



                      VOLUMETRIC SWI ZONE BUDGET FOR ENTIRE MODEL
                     AT END OF TIME STEP 1000 IN STRESS PERIOD   1
                                      ZONE     2
  -----------------------------------------------------------------------------------

        CUMULATIVE VOLUMES      L**3       RATES FOR THIS TIME STEP      L**3/T
        ------------------                 ------------------------

              IN:                                      IN:
              ---                                      ---
             BOUNDARIES =   181193200.0000            BOUNDARIES =        2082.1094
          CONSTANT HEAD =           0.0000         CONSTANT HEAD =           0.0000
            ZONE CHANGE = 14846938112.0000           ZONE CHANGE =       75698.0703
       ZONE CHG TIP/TOE =   597630336.0000      ZONE CHG TIP/TOE =        4294.0640
            ZONE MIXING =           0.0000           ZONE MIXING =           0.0000

               TOTAL IN = 15625760768.0000              TOTAL IN =       82074.2422

             OUT:                                     OUT:
             ----                                     ----
             BOUNDARIES = 10163407872.0000            BOUNDARIES =       69046.0312
          CONSTANT HEAD =           0.0000         CONSTANT HEAD =           0.0000
            ZONE CHANGE =  4890965504.0000           ZONE CHANGE =        8727.1094
       ZONE CHG TIP/TOE =    63832044.0000      ZONE CHG TIP/TOE =         517.4663
            ZONE MIXING =           0.0000           ZONE MIXING =           0.0000

              TOTAL OUT = 15118204928.0000             TOTAL OUT =       78290.6094

               IN - OUT =   507555840.0000              IN - OUT =        3783.6328

    PERCENT DISCREPANCY =           3.30     PERCENT DISCREPANCY =           4.72


 HEAD WILL BE SAVED ON UNIT   51 AT END OF TIME STEP 1000, STRESS PERIOD    1
1
  VOLUMETRIC BUDGET FOR ENTIRE MODEL AT END OF TIME STEP 1000, STRESS PERIOD   1
  ------------------------------------------------------------------------------

     CUMULATIVE VOLUMES      L**3       RATES FOR THIS TIME STEP      L**3/T
     ------------------                 ------------------------

           IN:                                      IN:
           ---                                      ---
             STORAGE =           0.0000               STORAGE =           0.0000
       CONSTANT HEAD =           0.0000         CONSTANT HEAD =           0.0000
          SWIADDTOCH =           0.0000            SWIADDTOCH =           0.0000
     HEAD DEP BOUNDS =           0.0000       HEAD DEP BOUNDS =           0.0000
            RECHARGE = 49277882368.0000              RECHARGE =      674575.3125

            TOTAL IN = 49277882368.0000              TOTAL IN =      674575.3125

          OUT:                                     OUT:
          ----                                     ----
             STORAGE =           0.0000               STORAGE =           0.0000
       CONSTANT HEAD =           0.0000         CONSTANT HEAD =           0.0000
          SWIADDTOCH =           0.0000            SWIADDTOCH =           0.0000
     HEAD DEP BOUNDS = 49062178816.0000       HEAD DEP BOUNDS =      671630.5625
            RECHARGE =   215116016.0000              RECHARGE =        2944.7622

           TOTAL OUT = 49277296640.0000             TOTAL OUT =      674575.3125

            IN - OUT =      585728.0000              IN - OUT =           0.0000

 PERCENT DISCREPANCY =           0.00     PERCENT DISCREPANCY =           0.00






         TIME SUMMARY AT END OF TIME STEP 1000 IN STRESS PERIOD    1
                    SECONDS     MINUTES      HOURS       DAYS        YEARS
                    -----------------------------------------------------------
   TIME STEP LENGTH 6.31152E+06 1.05192E+05  1753.2      73.050     0.20000    
 STRESS PERIOD TIME 6.31154E+09 1.05192E+08 1.75320E+06  73050.      200.00    
         TOTAL TIME 6.31154E+09 1.05192E+08 1.75320E+06  73050.      200.00    
1
1
                            STRESS PERIOD NO.    2, LENGTH =   4383.000    
                            -----------------------------------------------

                              NUMBER OF TIME STEPS =   120

                               MULTIPLIER FOR DELT =     1.000

                            INITIAL TIME STEP SIZE =   36.52500    

 REUSING NON-PARAMETER GHB CELLS FROM LAST STRESS PERIOD

   7876 GHB CELLS

 REUSING RECH FROM LAST STRESS PERIOD
 
 SOLVING FOR HEAD 

 NO OUTPUT CONTROL FOR STRESS PERIOD    2   TIME STEP    1
 SOLVING FOR ZETA FOR LAYER     1 ZONE     2

    4410 UPPER PART EQS.      4417 LOWER PART EQS.    BAND WIDTH + 1 =   93
 STRESS PERIOD=  2 TIMESTEP=  1 LAYER=  1 ZONE=  2 ACTIVE CELLS= 8827 NUMBER OF EQUATIONS=    8827
 
 SOLVING FOR HEAD 

 NO OUTPUT CONTROL FOR STRESS PERIOD    2   TIME STEP    2
 SOLVING FOR ZETA FOR LAYER     1 ZONE     2

    4458 UPPER PART EQS.      4444 LOWER PART EQS.    BAND WIDTH + 1 =   90
 STRESS PERIOD=  2 TIMESTEP=  2 LAYER=  1 ZONE=  2 ACTIVE CELLS= 8902 NUMBER OF EQUATIONS=    8902
 
 SOLVING FOR HEAD 

 NO OUTPUT CONTROL FOR STRESS PERIOD    2   TIME STEP    3
 SOLVING FOR ZETA FOR LAYER     1 ZONE     2

    4419 UPPER PART EQS.      4421 LOWER PART EQS.    BAND WIDTH + 1 =   93
 STRESS PERIOD=  2 TIMESTEP=  3 LAYER=  1 ZONE=  2 ACTIVE CELLS= 8840 NUMBER OF EQUATIONS=    8840
 
 SOLVING FOR HEAD 

 NO OUTPUT CONTROL FOR STRESS PERIOD    2   TIME STEP    4
 SOLVING FOR ZETA FOR LAYER     1 ZONE     2

    4457 UPPER PART EQS.      4445 LOWER PART EQS.    BAND WIDTH + 1 =   89
 STRESS PERIOD=  2 TIMESTEP=  4 LAYER=  1 ZONE=  2 ACTIVE CELLS= 8902 NUMBER OF EQUATIONS=    8902
 
 SOLVING FOR HEAD 

 NO OUTPUT CONTROL FOR STRESS PERIOD    2   TIME STEP    5
 SOLVING FOR ZETA FOR LAYER     1 ZONE     2

    4418 UPPER PART EQS.      4424 LOWER PART EQS.    BAND WIDTH + 1 =   92
 STRESS PERIOD=  2 TIMESTEP=  5 LAYER=  1 ZONE=  2 ACTIVE CELLS= 8842 NUMBER OF EQUATIONS=    8842
 
 SOLVING FOR HEAD 

 NO OUTPUT CONTROL FOR STRESS PERIOD    2   TIME STEP    6
 SOLVING FOR ZETA FOR LAYER     1 ZONE     2

    4462 UPPER PART EQS.      4441 LOWER PART EQS.    BAND WIDTH + 1 =   90
 STRESS PERIOD=  2 TIMESTEP=  6 LAYER=  1 ZONE=  2 ACTIVE CELLS= 8903 NUMBER OF EQUATIONS=    8903
 
 SOLVING FOR HEAD 

 NO OUTPUT CONTROL FOR STRESS PERIOD    2   TIME STEP    7
 SOLVING FOR ZETA FOR LAYER     1 ZONE     2

    4417 UPPER PART EQS.      4421 LOWER PART EQS.    BAND WIDTH + 1 =   92
 STRESS PERIOD=  2 TIMESTEP=  7 LAYER=  1 ZONE=  2 ACTIVE CELLS= 8838 NUMBER OF EQUATIONS=    8838
 
 SOLVING FOR HEAD 

 NO OUTPUT CONTROL FOR STRESS PERIOD    2   TIME STEP    8
 SOLVING FOR ZETA FOR LAYER     1 ZONE     2

    4458 UPPER PART EQS.      4442 LOWER PART EQS.    BAND WIDTH + 1 =   89
 STRESS PERIOD=  2 TIMESTEP=  8 LAYER=  1 ZONE=  2 ACTIVE CELLS= 8900 NUMBER OF EQUATIONS=    8900
 
 SOLVING FOR HEAD 

 NO OUTPUT CONTROL FOR STRESS PERIOD    2   TIME STEP    9
 SOLVING FOR ZETA FOR LAYER     1 ZONE     2

    4418 UPPER PART EQS.      4426 LOWER PART EQS.    BAND WIDTH + 1 =   92
 STRESS PERIOD=  2 TIMESTEP=  9 LAYER=  1 ZONE=  2 ACTIVE CELLS= 8844 NUMBER OF EQUATIONS=    8844
 
 SOLVING FOR HEAD 

 NO OUTPUT CONTROL FOR STRESS PERIOD    2   TIME STEP   10
 SOLVING FOR ZETA FOR LAYER     1 ZONE     2

    4459 UPPER PART EQS.      4438 LOWER PART EQS.    BAND WIDTH + 1 =   90
 STRESS PERIOD=  2 TIMESTEP= 10 LAYER=  1 ZONE=  2 ACTIVE CELLS= 8897 NUMBER OF EQUATIONS=    8897
 
 SOLVING FOR HEAD 

 NO OUTPUT CONTROL FOR STRESS PERIOD    2   TIME STEP   11
 SOLVING FOR ZETA FOR LAYER     1 ZONE     2

    4422 UPPER PART EQS.      4426 LOWER PART EQS.    BAND WIDTH + 1 =   92
 STRESS PERIOD=  2 TIMESTEP= 11 LAYER=  1 ZONE=  2 ACTIVE CELLS= 8848 NUMBER OF EQUATIONS=    8848
 
 SOLVING FOR HEAD 

 NO OUTPUT CONTROL FOR STRESS PERIOD    2   TIME STEP   12
 SOLVING FOR ZETA FOR LAYER     1 ZONE     2

    4459 UPPER PART EQS.      4443 LOWER PART EQS.    BAND WIDTH + 1 =   89
 STRESS PERIOD=  2 TIMESTEP= 12 LAYER=  1 ZONE=  2 ACTIVE CELLS= 8902 NUMBER OF EQUATIONS=    8902
 
 SOLVING FOR HEAD 

 NO OUTPUT CONTROL FOR STRESS PERIOD    2   TIME STEP   13
 SOLVING FOR ZETA FOR LAYER     1 ZONE     2

    4419 UPPER PART EQS.      4425 LOWER PART EQS.    BAND WIDTH + 1 =   92
 STRESS PERIOD=  2 TIMESTEP= 13 LAYER=  1 ZONE=  2 ACTIVE CELLS= 8844 NUMBER OF EQUATIONS=    8844
 
 SOLVING FOR HEAD 

 NO OUTPUT CONTROL FOR STRESS PERIOD    2   TIME STEP   14
 SOLVING FOR ZETA FOR LAYER     1 ZONE     2

    4462 UPPER PART EQS.      4442 LOWER PART EQS.    BAND WIDTH + 1 =   90
 STRESS PERIOD=  2 TIMESTEP= 14 LAYER=  1 ZONE=  2 ACTIVE CELLS= 8904 NUMBER OF EQUATIONS=    8904
 
 SOLVING FOR HEAD 

 NO OUTPUT CONTROL FOR STRESS PERIOD    2   TIME STEP   15
 SOLVING FOR ZETA FOR LAYER     1 ZONE     2

    4417 UPPER PART EQS.      4426 LOWER PART EQS.    BAND WIDTH + 1 =   92
 STRESS PERIOD=  2 TIMESTEP= 15 LAYER=  1 ZONE=  2 ACTIVE CELLS= 8843 NUMBER OF EQUATIONS=    8843
 
 SOLVING FOR HEAD 

 NO OUTPUT CONTROL FOR STRESS PERIOD    2   TIME STEP   16
 SOLVING FOR ZETA FOR LAYER     1 ZONE     2

    4459 UPPER PART EQS.      4440 LOWER PART EQS.    BAND WIDTH + 1 =   89
 STRESS PERIOD=  2 TIMESTEP= 16 LAYER=  1 ZONE=  2 ACTIVE CELLS= 8899 NUMBER OF EQUATIONS=    8899
 
 SOLVING FOR HEAD 

 NO OUTPUT CONTROL FOR STRESS PERIOD    2   TIME STEP   17
 SOLVING FOR ZETA FOR LAYER     1 ZONE     2

    4424 UPPER PART EQS.      4425 LOWER PART EQS.    BAND WIDTH + 1 =   90
 STRESS PERIOD=  2 TIMESTEP= 17 LAYER=  1 ZONE=  2 ACTIVE CELLS= 8849 NUMBER OF EQUATIONS=    8849
 
 SOLVING FOR HEAD 

 NO OUTPUT CONTROL FOR STRESS PERIOD    2   TIME STEP   18
 SOLVING FOR ZETA FOR LAYER     1 ZONE     2

    4464 UPPER PART EQS.      4444 LOWER PART EQS.    BAND WIDTH + 1 =   89
 STRESS PERIOD=  2 TIMESTEP= 18 LAYER=  1 ZONE=  2 ACTIVE CELLS= 8908 NUMBER OF EQUATIONS=    8908
 
 SOLVING FOR HEAD 

 NO OUTPUT CONTROL FOR STRESS PERIOD    2   TIME STEP   19
 SOLVING FOR ZETA FOR LAYER     1 ZONE     2

    4416 UPPER PART EQS.      4423 LOWER PART EQS.    BAND WIDTH + 1 =   92
 STRESS PERIOD=  2 TIMESTEP= 19 LAYER=  1 ZONE=  2 ACTIVE CELLS= 8839 NUMBER OF EQUATIONS=    8839
 
 SOLVING FOR HEAD 

 NO OUTPUT CONTROL FOR STRESS PERIOD    2   TIME STEP   20
 SOLVING FOR ZETA FOR LAYER     1 ZONE     2

    4462 UPPER PART EQS.      4443 LOWER PART EQS.    BAND WIDTH + 1 =   90
 STRESS PERIOD=  2 TIMESTEP= 20 LAYER=  1 ZONE=  2 ACTIVE CELLS= 8905 NUMBER OF EQUATIONS=    8905
 
 SOLVING FOR HEAD 

 NO OUTPUT CONTROL FOR STRESS PERIOD    2   TIME STEP   21
 SOLVING FOR ZETA FOR LAYER     1 ZONE     2

    4424 UPPER PART EQS.      4423 LOWER PART EQS.    BAND WIDTH + 1 =   91
 STRESS PERIOD=  2 TIMESTEP= 21 LAYER=  1 ZONE=  2 ACTIVE CELLS= 8847 NUMBER OF EQUATIONS=    8847
 
 SOLVING FOR HEAD 

 NO OUTPUT CONTROL FOR STRESS PERIOD    2   TIME STEP   22
 SOLVING FOR ZETA FOR LAYER     1 ZONE     2

    4457 UPPER PART EQS.      4438 LOWER PART EQS.    BAND WIDTH + 1 =   89
 STRESS PERIOD=  2 TIMESTEP= 22 LAYER=  1 ZONE=  2 ACTIVE CELLS= 8895 NUMBER OF EQUATIONS=    8895
 
 SOLVING FOR HEAD 

 NO OUTPUT CONTROL FOR STRESS PERIOD    2   TIME STEP   23
 SOLVING FOR ZETA FOR LAYER     1 ZONE     2

    4424 UPPER PART EQS.      4426 LOWER PART EQS.    BAND WIDTH + 1 =   91
 STRESS PERIOD=  2 TIMESTEP= 23 LAYER=  1 ZONE=  2 ACTIVE CELLS= 8850 NUMBER OF EQUATIONS=    8850
 
 SOLVING FOR HEAD 

 NO OUTPUT CONTROL FOR STRESS PERIOD    2   TIME STEP   24
 SOLVING FOR ZETA FOR LAYER     1 ZONE     2

    4462 UPPER PART EQS.      4445 LOWER PART EQS.    BAND WIDTH + 1 =   90
 STRESS PERIOD=  2 TIMESTEP= 24 LAYER=  1 ZONE=  2 ACTIVE CELLS= 8907 NUMBER OF EQUATIONS=    8907
 
 SOLVING FOR HEAD 

 NO OUTPUT CONTROL FOR STRESS PERIOD    2   TIME STEP   25
 SOLVING FOR ZETA FOR LAYER     1 ZONE     2

    4421 UPPER PART EQS.      4423 LOWER PART EQS.    BAND WIDTH + 1 =   92
 STRESS PERIOD=  2 TIMESTEP= 25 LAYER=  1 ZONE=  2 ACTIVE CELLS= 8844 NUMBER OF EQUATIONS=    8844
 
 SOLVING FOR HEAD 

 NO OUTPUT CONTROL FOR STRESS PERIOD    2   TIME STEP   26
 SOLVING FOR ZETA FOR LAYER     1 ZONE     2

    4461 UPPER PART EQS.      4442 LOWER PART EQS.    BAND WIDTH + 1 =   89
 STRESS PERIOD=  2 TIMESTEP= 26 LAYER=  1 ZONE=  2 ACTIVE CELLS= 8903 NUMBER OF EQUATIONS=    8903
 
 SOLVING FOR HEAD 

 NO OUTPUT CONTROL FOR STRESS PERIOD    2   TIME STEP   27
 SOLVING FOR ZETA FOR LAYER     1 ZONE     2

    4423 UPPER PART EQS.      4428 LOWER PART EQS.    BAND WIDTH + 1 =   91
 STRESS PERIOD=  2 TIMESTEP= 27 LAYER=  1 ZONE=  2 ACTIVE CELLS= 8851 NUMBER OF EQUATIONS=    8851
 
 SOLVING FOR HEAD 

 NO OUTPUT CONTROL FOR STRESS PERIOD    2   TIME STEP   28
 SOLVING FOR ZETA FOR LAYER     1 ZONE     2

    4457 UPPER PART EQS.      4440 LOWER PART EQS.    BAND WIDTH + 1 =   90
 STRESS PERIOD=  2 TIMESTEP= 28 LAYER=  1 ZONE=  2 ACTIVE CELLS= 8897 NUMBER OF EQUATIONS=    8897
 
 SOLVING FOR HEAD 

 NO OUTPUT CONTROL FOR STRESS PERIOD    2   TIME STEP   29
 SOLVING FOR ZETA FOR LAYER     1 ZONE     2

    4428 UPPER PART EQS.      4425 LOWER PART EQS.    BAND WIDTH + 1 =   90
 STRESS PERIOD=  2 TIMESTEP= 29 LAYER=  1 ZONE=  2 ACTIVE CELLS= 8853 NUMBER OF EQUATIONS=    8853
 
 SOLVING FOR HEAD 

 NO OUTPUT CONTROL FOR STRESS PERIOD    2   TIME STEP   30
 SOLVING FOR ZETA FOR LAYER     1 ZONE     2

    4463 UPPER PART EQS.      4446 LOWER PART EQS.    BAND WIDTH + 1 =   90
 STRESS PERIOD=  2 TIMESTEP= 30 LAYER=  1 ZONE=  2 ACTIVE CELLS= 8909 NUMBER OF EQUATIONS=    8909
 
 SOLVING FOR HEAD 

 NO OUTPUT CONTROL FOR STRESS PERIOD    2   TIME STEP   31
 SOLVING FOR ZETA FOR LAYER     1 ZONE     2

    4424 UPPER PART EQS.      4423 LOWER PART EQS.    BAND WIDTH + 1 =   91
 STRESS PERIOD=  2 TIMESTEP= 31 LAYER=  1 ZONE=  2 ACTIVE CELLS= 8847 NUMBER OF EQUATIONS=    8847
 
 SOLVING FOR HEAD 

 NO OUTPUT CONTROL FOR STRESS PERIOD    2   TIME STEP   32
 SOLVING FOR ZETA FOR LAYER     1 ZONE     2

    4460 UPPER PART EQS.      4444 LOWER PART EQS.    BAND WIDTH + 1 =   90
 STRESS PERIOD=  2 TIMESTEP= 32 LAYER=  1 ZONE=  2 ACTIVE CELLS= 8904 NUMBER OF EQUATIONS=    8904
 
 SOLVING FOR HEAD 

 NO OUTPUT CONTROL FOR STRESS PERIOD    2   TIME STEP   33
 SOLVING FOR ZETA FOR LAYER     1 ZONE     2

    4422 UPPER PART EQS.      4429 LOWER PART EQS.    BAND WIDTH + 1 =   91
 STRESS PERIOD=  2 TIMESTEP= 33 LAYER=  1 ZONE=  2 ACTIVE CELLS= 8851 NUMBER OF EQUATIONS=    8851
 
 SOLVING FOR HEAD 

 NO OUTPUT CONTROL FOR STRESS PERIOD    2   TIME STEP   34
 SOLVING FOR ZETA FOR LAYER     1 ZONE     2

    4456 UPPER PART EQS.      4440 LOWER PART EQS.    BAND WIDTH + 1 =   90
 STRESS PERIOD=  2 TIMESTEP= 34 LAYER=  1 ZONE=  2 ACTIVE CELLS= 8896 NUMBER OF EQUATIONS=    8896
 
 SOLVING FOR HEAD 

 NO OUTPUT CONTROL FOR STRESS PERIOD    2   TIME STEP   35
 SOLVING FOR ZETA FOR LAYER     1 ZONE     2

    4428 UPPER PART EQS.      4428 LOWER PART EQS.    BAND WIDTH + 1 =   91
 STRESS PERIOD=  2 TIMESTEP= 35 LAYER=  1 ZONE=  2 ACTIVE CELLS= 8856 NUMBER OF EQUATIONS=    8856
 
 SOLVING FOR HEAD 

 NO OUTPUT CONTROL FOR STRESS PERIOD    2   TIME STEP   36
 SOLVING FOR ZETA FOR LAYER     1 ZONE     2

    4464 UPPER PART EQS.      4443 LOWER PART EQS.    BAND WIDTH + 1 =   91
 STRESS PERIOD=  2 TIMESTEP= 36 LAYER=  1 ZONE=  2 ACTIVE CELLS= 8907 NUMBER OF EQUATIONS=    8907
 
 SOLVING FOR HEAD 

 NO OUTPUT CONTROL FOR STRESS PERIOD    2   TIME STEP   37
 SOLVING FOR ZETA FOR LAYER     1 ZONE     2

    4424 UPPER PART EQS.      4428 LOWER PART EQS.    BAND WIDTH + 1 =   91
 STRESS PERIOD=  2 TIMESTEP= 37 LAYER=  1 ZONE=  2 ACTIVE CELLS= 8852 NUMBER OF EQUATIONS=    8852
 
 SOLVING FOR HEAD 

 NO OUTPUT CONTROL FOR STRESS PERIOD    2   TIME STEP   38
 SOLVING FOR ZETA FOR LAYER     1 ZONE     2

    4459 UPPER PART EQS.      4446 LOWER PART EQS.    BAND WIDTH + 1 =   91
 STRESS PERIOD=  2 TIMESTEP= 38 LAYER=  1 ZONE=  2 ACTIVE CELLS= 8905 NUMBER OF EQUATIONS=    8905
 
 SOLVING FOR HEAD 

 NO OUTPUT CONTROL FOR STRESS PERIOD    2   TIME STEP   39
 SOLVING FOR ZETA FOR LAYER     1 ZONE     2

    4423 UPPER PART EQS.      4429 LOWER PART EQS.    BAND WIDTH + 1 =   90
 STRESS PERIOD=  2 TIMESTEP= 39 LAYER=  1 ZONE=  2 ACTIVE CELLS= 8852 NUMBER OF EQUATIONS=    8852
 
 SOLVING FOR HEAD 

 NO OUTPUT CONTROL FOR STRESS PERIOD    2   TIME STEP   40
 SOLVING FOR ZETA FOR LAYER     1 ZONE     2

    4463 UPPER PART EQS.      4442 LOWER PART EQS.    BAND WIDTH + 1 =   92
 STRESS PERIOD=  2 TIMESTEP= 40 LAYER=  1 ZONE=  2 ACTIVE CELLS= 8905 NUMBER OF EQUATIONS=    8905
 
 SOLVING FOR HEAD 

 NO OUTPUT CONTROL FOR STRESS PERIOD    2   TIME STEP   41
 SOLVING FOR ZETA FOR LAYER     1 ZONE     2

    4428 UPPER PART EQS.      4430 LOWER PART EQS.    BAND WIDTH + 1 =   92
 STRESS PERIOD=  2 TIMESTEP= 41 LAYER=  1 ZONE=  2 ACTIVE CELLS= 8858 NUMBER OF EQUATIONS=    8858
 
 SOLVING FOR HEAD 

 NO OUTPUT CONTROL FOR STRESS PERIOD    2   TIME STEP   42
 SOLVING FOR ZETA FOR LAYER     1 ZONE     2

    4463 UPPER PART EQS.      4444 LOWER PART EQS.    BAND WIDTH + 1 =   91
 STRESS PERIOD=  2 TIMESTEP= 42 LAYER=  1 ZONE=  2 ACTIVE CELLS= 8907 NUMBER OF EQUATIONS=    8907
 
 SOLVING FOR HEAD 

 NO OUTPUT CONTROL FOR STRESS PERIOD    2   TIME STEP   43
 SOLVING FOR ZETA FOR LAYER     1 ZONE     2

    4423 UPPER PART EQS.      4428 LOWER PART EQS.    BAND WIDTH + 1 =   90
 STRESS PERIOD=  2 TIMESTEP= 43 LAYER=  1 ZONE=  2 ACTIVE CELLS= 8851 NUMBER OF EQUATIONS=    8851
 
 SOLVING FOR HEAD 

 NO OUTPUT CONTROL FOR STRESS PERIOD    2   TIME STEP   44
 SOLVING FOR ZETA FOR LAYER     1 ZONE     2

    4463 UPPER PART EQS.      4446 LOWER PART EQS.    BAND WIDTH + 1 =   92
 STRESS PERIOD=  2 TIMESTEP= 44 LAYER=  1 ZONE=  2 ACTIVE CELLS= 8909 NUMBER OF EQUATIONS=    8909
 
 SOLVING FOR HEAD 

 NO OUTPUT CONTROL FOR STRESS PERIOD    2   TIME STEP   45
 SOLVING FOR ZETA FOR LAYER     1 ZONE     2

    4426 UPPER PART EQS.      4433 LOWER PART EQS.    BAND WIDTH + 1 =   91
 STRESS PERIOD=  2 TIMESTEP= 45 LAYER=  1 ZONE=  2 ACTIVE CELLS= 8859 NUMBER OF EQUATIONS=    8859
 
 SOLVING FOR HEAD 

 NO OUTPUT CONTROL FOR STRESS PERIOD    2   TIME STEP   46
 SOLVING FOR ZETA FOR LAYER     1 ZONE     2

    4459 UPPER PART EQS.      4440 LOWER PART EQS.    BAND WIDTH + 1 =   90
 STRESS PERIOD=  2 TIMESTEP= 46 LAYER=  1 ZONE=  2 ACTIVE CELLS= 8899 NUMBER OF EQUATIONS=    8899
 
 SOLVING FOR HEAD 

 NO OUTPUT CONTROL FOR STRESS PERIOD    2   TIME STEP   47
 SOLVING FOR ZETA FOR LAYER     1 ZONE     2

    4427 UPPER PART EQS.      4431 LOWER PART EQS.    BAND WIDTH + 1 =   89
 STRESS PERIOD=  2 TIMESTEP= 47 LAYER=  1 ZONE=  2 ACTIVE CELLS= 8858 NUMBER OF EQUATIONS=    8858
 
 SOLVING FOR HEAD 

 NO OUTPUT CONTROL FOR STRESS PERIOD    2   TIME STEP   48
 SOLVING FOR ZETA FOR LAYER     1 ZONE     2

    4462 UPPER PART EQS.      4448 LOWER PART EQS.    BAND WIDTH + 1 =   90
 STRESS PERIOD=  2 TIMESTEP= 48 LAYER=  1 ZONE=  2 ACTIVE CELLS= 8910 NUMBER OF EQUATIONS=    8910
 
 SOLVING FOR HEAD 

 NO OUTPUT CONTROL FOR STRESS PERIOD    2   TIME STEP   49
 SOLVING FOR ZETA FOR LAYER     1 ZONE     2

    4426 UPPER PART EQS.      4430 LOWER PART EQS.    BAND WIDTH + 1 =   90
 STRESS PERIOD=  2 TIMESTEP= 49 LAYER=  1 ZONE=  2 ACTIVE CELLS= 8856 NUMBER OF EQUATIONS=    8856
 
 SOLVING FOR HEAD 

 NO OUTPUT CONTROL FOR STRESS PERIOD    2   TIME STEP   50
 SOLVING FOR ZETA FOR LAYER     1 ZONE     2

    4458 UPPER PART EQS.      4451 LOWER PART EQS.    BAND WIDTH + 1 =   90
 STRESS PERIOD=  2 TIMESTEP= 50 LAYER=  1 ZONE=  2 ACTIVE CELLS= 8909 NUMBER OF EQUATIONS=    8909
 
 SOLVING FOR HEAD 

 NO OUTPUT CONTROL FOR STRESS PERIOD    2   TIME STEP   51
 SOLVING FOR ZETA FOR LAYER     1 ZONE     2

    4426 UPPER PART EQS.      4434 LOWER PART EQS.    BAND WIDTH + 1 =   90
 STRESS PERIOD=  2 TIMESTEP= 51 LAYER=  1 ZONE=  2 ACTIVE CELLS= 8860 NUMBER OF EQUATIONS=    8860
 
 SOLVING FOR HEAD 

 NO OUTPUT CONTROL FOR STRESS PERIOD    2   TIME STEP   52
 SOLVING FOR ZETA FOR LAYER     1 ZONE     2

    4461 UPPER PART EQS.      4441 LOWER PART EQS.    BAND WIDTH + 1 =   91
 STRESS PERIOD=  2 TIMESTEP= 52 LAYER=  1 ZONE=  2 ACTIVE CELLS= 8902 NUMBER OF EQUATIONS=    8902
 
 SOLVING FOR HEAD 

 NO OUTPUT CONTROL FOR STRESS PERIOD    2   TIME STEP   53
 SOLVING FOR ZETA FOR LAYER     1 ZONE     2

    4425 UPPER PART EQS.      4429 LOWER PART EQS.    BAND WIDTH + 1 =   92
 STRESS PERIOD=  2 TIMESTEP= 53 LAYER=  1 ZONE=  2 ACTIVE CELLS= 8854 NUMBER OF EQUATIONS=    8854
 
 SOLVING FOR HEAD 

 NO OUTPUT CONTROL FOR STRESS PERIOD    2   TIME STEP   54
 SOLVING FOR ZETA FOR LAYER     1 ZONE     2

    4462 UPPER PART EQS.      4456 LOWER PART EQS.    BAND WIDTH + 1 =   90
 STRESS PERIOD=  2 TIMESTEP= 54 LAYER=  1 ZONE=  2 ACTIVE CELLS= 8918 NUMBER OF EQUATIONS=    8918
 
 SOLVING FOR HEAD 

 NO OUTPUT CONTROL FOR STRESS PERIOD    2   TIME STEP   55
 SOLVING FOR ZETA FOR LAYER     1 ZONE     2

    4430 UPPER PART EQS.      4428 LOWER PART EQS.    BAND WIDTH + 1 =   90
 STRESS PERIOD=  2 TIMESTEP= 55 LAYER=  1 ZONE=  2 ACTIVE CELLS= 8858 NUMBER OF EQUATIONS=    8858
 
 SOLVING FOR HEAD 

 NO OUTPUT CONTROL FOR STRESS PERIOD    2   TIME STEP   56
 SOLVING FOR ZETA FOR LAYER     1 ZONE     2

    4463 UPPER PART EQS.      4453 LOWER PART EQS.    BAND WIDTH + 1 =   92
 STRESS PERIOD=  2 TIMESTEP= 56 LAYER=  1 ZONE=  2 ACTIVE CELLS= 8916 NUMBER OF EQUATIONS=    8916
 
 SOLVING FOR HEAD 

 NO OUTPUT CONTROL FOR STRESS PERIOD    2   TIME STEP   57
 SOLVING FOR ZETA FOR LAYER     1 ZONE     2

    4425 UPPER PART EQS.      4430 LOWER PART EQS.    BAND WIDTH + 1 =   92
 STRESS PERIOD=  2 TIMESTEP= 57 LAYER=  1 ZONE=  2 ACTIVE CELLS= 8855 NUMBER OF EQUATIONS=    8855
 
 SOLVING FOR HEAD 

 NO OUTPUT CONTROL FOR STRESS PERIOD    2   TIME STEP   58
 SOLVING FOR ZETA FOR LAYER     1 ZONE     2

    4460 UPPER PART EQS.      4451 LOWER PART EQS.    BAND WIDTH + 1 =   91
 STRESS PERIOD=  2 TIMESTEP= 58 LAYER=  1 ZONE=  2 ACTIVE CELLS= 8911 NUMBER OF EQUATIONS=    8911
 
 SOLVING FOR HEAD 

 NO OUTPUT CONTROL FOR STRESS PERIOD    2   TIME STEP   59
 SOLVING FOR ZETA FOR LAYER     1 ZONE     2

    4430 UPPER PART EQS.      4433 LOWER PART EQS.    BAND WIDTH + 1 =   89
 STRESS PERIOD=  2 TIMESTEP= 59 LAYER=  1 ZONE=  2 ACTIVE CELLS= 8863 NUMBER OF EQUATIONS=    8863
 
 SOLVING FOR HEAD 

 OUTPUT CONTROL FOR STRESS PERIOD    2   TIME STEP   60
    PRINT BUDGET
    SAVE HEAD FOR ALL LAYERS
 SOLVING FOR ZETA FOR LAYER     1 ZONE     2

    4464 UPPER PART EQS.      4454 LOWER PART EQS.    BAND WIDTH + 1 =   91
 STRESS PERIOD=  2 TIMESTEP= 60 LAYER=  1 ZONE=  2 ACTIVE CELLS= 8918 NUMBER OF EQUATIONS=    8918
 UBUDSV SAVING "      ZETASRF  1" ON UNIT 55 AT TIME STEP 60, STRESS PERIOD    2


                      VOLUMETRIC SWI ZONE BUDGET FOR ENTIRE MODEL
                     AT END OF TIME STEP   60 IN STRESS PERIOD   2
                                      ZONE     1
  -----------------------------------------------------------------------------------

        CUMULATIVE VOLUMES      L**3       RATES FOR THIS TIME STEP      L**3/T
        ------------------                 ------------------------

              IN:                                      IN:
              ---                                      ---
             BOUNDARIES = 45741121536.0000            BOUNDARIES =      607926.9375
          CONSTANT HEAD =           0.0000         CONSTANT HEAD =           0.0000
            ZONE CHANGE =  4348808704.0000           ZONE CHANGE =        5031.8784
       ZONE CHG TIP/TOE =    66755492.0000      ZONE CHG TIP/TOE =         996.3789
            ZONE MIXING =           0.0000           ZONE MIXING =           0.0000

               TOTAL IN = 50156687360.0000              TOTAL IN =      613955.1875

             OUT:                                     OUT:
             ----                                     ----
             BOUNDARIES = 35609501696.0000            BOUNDARIES =      543253.6875
          CONSTANT HEAD =           0.0000         CONSTANT HEAD =           0.0000
            ZONE CHANGE = 15013720064.0000           ZONE CHANGE =       73446.8203
       ZONE CHG TIP/TOE =    46973456.0000      ZONE CHG TIP/TOE =         773.6404
            ZONE MIXING =           0.0000           ZONE MIXING =           0.0000

              TOTAL OUT = 50670194688.0000             TOTAL OUT =      617474.1250

               IN - OUT =  -513507328.0000              IN - OUT =       -3518.9375

    PERCENT DISCREPANCY =          -1.02     PERCENT DISCREPANCY =          -0.57



                      VOLUMETRIC SWI ZONE BUDGET FOR ENTIRE MODEL
                     AT END OF TIME STEP   60 IN STRESS PERIOD   2
                                      ZONE     2
  -----------------------------------------------------------------------------------

        CUMULATIVE VOLUMES      L**3       RATES FOR THIS TIME STEP      L**3/T
        ------------------                 ------------------------

              IN:                                      IN:
              ---                                      ---
             BOUNDARIES =   185744624.0000            BOUNDARIES =        2074.1113
          CONSTANT HEAD =           0.0000         CONSTANT HEAD =           0.0000
            ZONE CHANGE = 15013720064.0000           ZONE CHANGE =       73446.8203
       ZONE CHG TIP/TOE =   606253120.0000      ZONE CHG TIP/TOE =        4501.3325
            ZONE MIXING =           0.0000           ZONE MIXING =           0.0000

               TOTAL IN = 15805717504.0000              TOTAL IN =       80022.2656

             OUT:                                     OUT:
             ----                                     ----
             BOUNDARIES = 10317582336.0000            BOUNDARIES =       66747.3516
          CONSTANT HEAD =           0.0000         CONSTANT HEAD =           0.0000
            ZONE CHANGE =  4908092928.0000           ZONE CHANGE =        8759.5703
       ZONE CHG TIP/TOE =    66755492.0000      ZONE CHG TIP/TOE =         996.3789
            ZONE MIXING =           0.0000           ZONE MIXING =           0.0000

              TOTAL OUT = 15292431360.0000             TOTAL OUT =       76503.2969

               IN - OUT =   513286144.0000              IN - OUT =        3518.9688

    PERCENT DISCREPANCY =           3.30     PERCENT DISCREPANCY =           4.50


 HEAD WILL BE SAVED ON UNIT   51 AT END OF TIME STEP   60, STRESS PERIOD    2
1
  VOLUMETRIC BUDGET FOR ENTIRE MODEL AT END OF TIME STEP   60, STRESS PERIOD   2
  ------------------------------------------------------------------------------

     CUMULATIVE VOLUMES      L**3       RATES FOR THIS TIME STEP      L**3/T
     ------------------                 ------------------------

           IN:                                      IN:
           ---                                      ---
             STORAGE =           0.0000               STORAGE =           0.0000
       CONSTANT HEAD =           0.0000         CONSTANT HEAD =           0.0000
          SWIADDTOCH =           0.0000            SWIADDTOCH =           0.0000
     HEAD DEP BOUNDS =           0.0000       HEAD DEP BOUNDS =           0.0000
            RECHARGE = 50756128768.0000              RECHARGE =      674575.3125

            TOTAL IN = 50756128768.0000              TOTAL IN =      674575.3125

          OUT:                                     OUT:
          ----                                     ----
             STORAGE =           0.0000               STORAGE =           0.0000
       CONSTANT HEAD =           0.0000         CONSTANT HEAD =           0.0000
          SWIADDTOCH =           0.0000            SWIADDTOCH =           0.0000
     HEAD DEP BOUNDS = 50534035456.0000       HEAD DEP BOUNDS =      671630.5625
            RECHARGE =   221569136.0000              RECHARGE =        2944.7622

           TOTAL OUT = 50755604480.0000             TOTAL OUT =      674575.3125

            IN - OUT =      524288.0000              IN - OUT =           0.0000

 PERCENT DISCREPANCY =           0.00     PERCENT DISCREPANCY =           0.00






         TIME SUMMARY AT END OF TIME STEP   60 IN STRESS PERIOD    2
                    SECONDS     MINUTES      HOURS       DAYS        YEARS
                    -----------------------------------------------------------
   TIME STEP LENGTH 3.15576E+06  52596.      876.60      36.525     0.10000    
 STRESS PERIOD TIME 1.89346E+08 3.15576E+06  52596.      2191.5      6.0000    
         TOTAL TIME 6.50087E+09 1.08348E+08 1.80580E+06  75242.      206.00    
1
 
 SOLVING FOR HEAD 

 NO OUTPUT CONTROL FOR STRESS PERIOD    2   TIME STEP   61
 SOLVING FOR ZETA FOR LAYER     1 ZONE     2

    4426 UPPER PART EQS.      4425 LOWER PART EQS.    BAND WIDTH + 1 =   90
 STRESS PERIOD=  2 TIMESTEP= 61 LAYER=  1 ZONE=  2 ACTIVE CELLS= 8851 NUMBER OF EQUATIONS=    8851
 
 SOLVING FOR HEAD 

 NO OUTPUT CONTROL FOR STRESS PERIOD    2   TIME STEP   62
 SOLVING FOR ZETA FOR LAYER     1 ZONE     2

    4463 UPPER PART EQS.      4458 LOWER PART EQS.    BAND WIDTH + 1 =   91
 STRESS PERIOD=  2 TIMESTEP= 62 LAYER=  1 ZONE=  2 ACTIVE CELLS= 8921 NUMBER OF EQUATIONS=    8921
 
 SOLVING FOR HEAD 

 NO OUTPUT CONTROL FOR STRESS PERIOD    2   TIME STEP   63
 SOLVING FOR ZETA FOR LAYER     1 ZONE     2

    4427 UPPER PART EQS.      4433 LOWER PART EQS.    BAND WIDTH + 1 =   89
 STRESS PERIOD=  2 TIMESTEP= 63 LAYER=  1 ZONE=  2 ACTIVE CELLS= 8860 NUMBER OF EQUATIONS=    8860
 
 SOLVING FOR HEAD 

 NO OUTPUT CONTROL FOR STRESS PERIOD    2   TIME STEP   64
 SOLVING FOR ZETA FOR LAYER     1 ZONE     2

    4460 UPPER PART EQS.      4448 LOWER PART EQS.    BAND WIDTH + 1 =   91
 STRESS PERIOD=  2 TIMESTEP= 64 LAYER=  1 ZONE=  2 ACTIVE CELLS= 8908 NUMBER OF EQUATIONS=    8908
 
 SOLVING FOR HEAD 

 NO OUTPUT CONTROL FOR STRESS PERIOD    2   TIME STEP   65
 SOLVING FOR ZETA FOR LAYER     1 ZONE     2

    4428 UPPER PART EQS.      4436 LOWER PART EQS.    BAND WIDTH + 1 =   89
 STRESS PERIOD=  2 TIMESTEP= 65 LAYER=  1 ZONE=  2 ACTIVE CELLS= 8864 NUMBER OF EQUATIONS=    8864
 
 SOLVING FOR HEAD 

 NO OUTPUT CONTROL FOR STRESS PERIOD    2   TIME STEP   66
 SOLVING FOR ZETA FOR LAYER     1 ZONE     2

    4461 UPPER PART EQS.      4448 LOWER PART EQS.    BAND WIDTH + 1 =   90
 STRESS PERIOD=  2 TIMESTEP= 66 LAYER=  1 ZONE=  2 ACTIVE CELLS= 8909 NUMBER OF EQUATIONS=    8909
 
 SOLVING FOR HEAD 

 NO OUTPUT CONTROL FOR STRESS PERIOD    2   TIME STEP   67
 SOLVING FOR ZETA FOR LAYER     1 ZONE     2

    4429 UPPER PART EQS.      4432 LOWER PART EQS.    BAND WIDTH + 1 =   89
 STRESS PERIOD=  2 TIMESTEP= 67 LAYER=  1 ZONE=  2 ACTIVE CELLS= 8861 NUMBER OF EQUATIONS=    8861
 
 SOLVING FOR HEAD 

 NO OUTPUT CONTROL FOR STRESS PERIOD    2   TIME STEP   68
 SOLVING FOR ZETA FOR LAYER     1 ZONE     2

    4459 UPPER PART EQS.      4453 LOWER PART EQS.    BAND WIDTH + 1 =   90
 STRESS PERIOD=  2 TIMESTEP= 68 LAYER=  1 ZONE=  2 ACTIVE CELLS= 8912 NUMBER OF EQUATIONS=    8912
 
 SOLVING FOR HEAD 

 NO OUTPUT CONTROL FOR STRESS PERIOD    2   TIME STEP   69
 SOLVING FOR ZETA FOR LAYER     1 ZONE     2

    4427 UPPER PART EQS.      4436 LOWER PART EQS.    BAND WIDTH + 1 =   91
 STRESS PERIOD=  2 TIMESTEP= 69 LAYER=  1 ZONE=  2 ACTIVE CELLS= 8863 NUMBER OF EQUATIONS=    8863
 
 SOLVING FOR HEAD 

 NO OUTPUT CONTROL FOR STRESS PERIOD    2   TIME STEP   70
 SOLVING FOR ZETA FOR LAYER     1 ZONE     2

    4462 UPPER PART EQS.      4449 LOWER PART EQS.    BAND WIDTH + 1 =   92
 STRESS PERIOD=  2 TIMESTEP= 70 LAYER=  1 ZONE=  2 ACTIVE CELLS= 8911 NUMBER OF EQUATIONS=    8911
 
 SOLVING FOR HEAD 

 NO OUTPUT CONTROL FOR STRESS PERIOD    2   TIME STEP   71
 SOLVING FOR ZETA FOR LAYER     1 ZONE     2

    4429 UPPER PART EQS.      4430 LOWER PART EQS.    BAND WIDTH + 1 =   90
 STRESS PERIOD=  2 TIMESTEP= 71 LAYER=  1 ZONE=  2 ACTIVE CELLS= 8859 NUMBER OF EQUATIONS=    8859
 
 SOLVING FOR HEAD 

 NO OUTPUT CONTROL FOR STRESS PERIOD    2   TIME STEP   72
 SOLVING FOR ZETA FOR LAYER     1 ZONE     2

    4457 UPPER PART EQS.      4456 LOWER PART EQS.    BAND WIDTH + 1 =   89
 STRESS PERIOD=  2 TIMESTEP= 72 LAYER=  1 ZONE=  2 ACTIVE CELLS= 8913 NUMBER OF EQUATIONS=    8913
 
 SOLVING FOR HEAD 

 NO OUTPUT CONTROL FOR STRESS PERIOD    2   TIME STEP   73
 SOLVING FOR ZETA FOR LAYER     1 ZONE     2

    4428 UPPER PART EQS.      4431 LOWER PART EQS.    BAND WIDTH + 1 =   91
 STRESS PERIOD=  2 TIMESTEP= 73 LAYER=  1 ZONE=  2 ACTIVE CELLS= 8859 NUMBER OF EQUATIONS=    8859
 
 SOLVING FOR HEAD 

 NO OUTPUT CONTROL FOR STRESS PERIOD    2   TIME STEP   74
 SOLVING FOR ZETA FOR LAYER     1 ZONE     2

    4458 UPPER PART EQS.      4455 LOWER PART EQS.    BAND WIDTH + 1 =   91
 STRESS PERIOD=  2 TIMESTEP= 74 LAYER=  1 ZONE=  2 ACTIVE CELLS= 8913 NUMBER OF EQUATIONS=    8913
 
 SOLVING FOR HEAD 

 NO OUTPUT CONTROL FOR STRESS PERIOD    2   TIME STEP   75
 SOLVING FOR ZETA FOR LAYER     1 ZONE     2

    4432 UPPER PART EQS.      4438 LOWER PART EQS.    BAND WIDTH + 1 =   89
 STRESS PERIOD=  2 TIMESTEP= 75 LAYER=  1 ZONE=  2 ACTIVE CELLS= 8870 NUMBER OF EQUATIONS=    8870
 
 SOLVING FOR HEAD 

 NO OUTPUT CONTROL FOR STRESS PERIOD    2   TIME STEP   76
 SOLVING FOR ZETA FOR LAYER     1 ZONE     2

    4456 UPPER PART EQS.      4449 LOWER PART EQS.    BAND WIDTH + 1 =   90
 STRESS PERIOD=  2 TIMESTEP= 76 LAYER=  1 ZONE=  2 ACTIVE CELLS= 8905 NUMBER OF EQUATIONS=    8905
 
 SOLVING FOR HEAD 

 NO OUTPUT CONTROL FOR STRESS PERIOD    2   TIME STEP   77
 SOLVING FOR ZETA FOR LAYER     1 ZONE     2

    4431 UPPER PART EQS.      4433 LOWER PART EQS.    BAND WIDTH + 1 =   90
 STRESS PERIOD=  2 TIMESTEP= 77 LAYER=  1 ZONE=  2 ACTIVE CELLS= 8864 NUMBER OF EQUATIONS=    8864
 
 SOLVING FOR HEAD 

 NO OUTPUT CONTROL FOR STRESS PERIOD    2   TIME STEP   78
 SOLVING FOR ZETA FOR LAYER     1 ZONE     2

    4453 UPPER PART EQS.      4453 LOWER PART EQS.    BAND WIDTH + 1 =   91
 STRESS PERIOD=  2 TIMESTEP= 78 LAYER=  1 ZONE=  2 ACTIVE CELLS= 8906 NUMBER OF EQUATIONS=    8906
 
 SOLVING FOR HEAD 

 NO OUTPUT CONTROL FOR STRESS PERIOD    2   TIME STEP   79
 SOLVING FOR ZETA FOR LAYER     1 ZONE     2

    4434 UPPER PART EQS.      4434 LOWER PART EQS.    BAND WIDTH + 1 =   91
 STRESS PERIOD=  2 TIMESTEP= 79 LAYER=  1 ZONE=  2 ACTIVE CELLS= 8868 NUMBER OF EQUATIONS=    8868
 
 SOLVING FOR HEAD 

 NO OUTPUT CONTROL FOR STRESS PERIOD    2   TIME STEP   80
 SOLVING FOR ZETA FOR LAYER     1 ZONE     2

    4461 UPPER PART EQS.      4456 LOWER PART EQS.    BAND WIDTH + 1 =   90
 STRESS PERIOD=  2 TIMESTEP= 80 LAYER=  1 ZONE=  2 ACTIVE CELLS= 8917 NUMBER OF EQUATIONS=    8917
 
 SOLVING FOR HEAD 

 NO OUTPUT CONTROL FOR STRESS PERIOD    2   TIME STEP   81
 SOLVING FOR ZETA FOR LAYER     1 ZONE     2

    4427 UPPER PART EQS.      4433 LOWER PART EQS.    BAND WIDTH + 1 =   92
 STRESS PERIOD=  2 TIMESTEP= 81 LAYER=  1 ZONE=  2 ACTIVE CELLS= 8860 NUMBER OF EQUATIONS=    8860
 
 SOLVING FOR HEAD 

 NO OUTPUT CONTROL FOR STRESS PERIOD    2   TIME STEP   82
 SOLVING FOR ZETA FOR LAYER     1 ZONE     2

    4460 UPPER PART EQS.      4453 LOWER PART EQS.    BAND WIDTH + 1 =   92
 STRESS PERIOD=  2 TIMESTEP= 82 LAYER=  1 ZONE=  2 ACTIVE CELLS= 8913 NUMBER OF EQUATIONS=    8913
 
 SOLVING FOR HEAD 

 NO OUTPUT CONTROL FOR STRESS PERIOD    2   TIME STEP   83
 SOLVING FOR ZETA FOR LAYER     1 ZONE     2

    4432 UPPER PART EQS.      4435 LOWER PART EQS.    BAND WIDTH + 1 =   90
 STRESS PERIOD=  2 TIMESTEP= 83 LAYER=  1 ZONE=  2 ACTIVE CELLS= 8867 NUMBER OF EQUATIONS=    8867
 
 SOLVING FOR HEAD 

 NO OUTPUT CONTROL FOR STRESS PERIOD    2   TIME STEP   84
 SOLVING FOR ZETA FOR LAYER     1 ZONE     2

    4455 UPPER PART EQS.      4457 LOWER PART EQS.    BAND WIDTH + 1 =   90
 STRESS PERIOD=  2 TIMESTEP= 84 LAYER=  1 ZONE=  2 ACTIVE CELLS= 8912 NUMBER OF EQUATIONS=    8912
 
 SOLVING FOR HEAD 

 NO OUTPUT CONTROL FOR STRESS PERIOD    2   TIME STEP   85
 SOLVING FOR ZETA FOR LAYER     1 ZONE     2

    4435 UPPER PART EQS.      4434 LOWER PART EQS.    BAND WIDTH + 1 =   90
 STRESS PERIOD=  2 TIMESTEP= 85 LAYER=  1 ZONE=  2 ACTIVE CELLS= 8869 NUMBER OF EQUATIONS=    8869
 
 SOLVING FOR HEAD 

 NO OUTPUT CONTROL FOR STRESS PERIOD    2   TIME STEP   86
 SOLVING FOR ZETA FOR LAYER     1 ZONE     2

    4458 UPPER PART EQS.      4455 LOWER PART EQS.    BAND WIDTH + 1 =   91
 STRESS PERIOD=  2 TIMESTEP= 86 LAYER=  1 ZONE=  2 ACTIVE CELLS= 8913 NUMBER OF EQUATIONS=    8913
 
 SOLVING FOR HEAD 

 NO OUTPUT CONTROL FOR STRESS PERIOD    2   TIME STEP   87
 SOLVING FOR ZETA FOR LAYER     1 ZONE     2

    4433 UPPER PART EQS.      4436 LOWER PART EQS.    BAND WIDTH + 1 =   91
 STRESS PERIOD=  2 TIMESTEP= 87 LAYER=  1 ZONE=  2 ACTIVE CELLS= 8869 NUMBER OF EQUATIONS=    8869
 
 SOLVING FOR HEAD 

 NO OUTPUT CONTROL FOR STRESS PERIOD    2   TIME STEP   88
 SOLVING FOR ZETA FOR LAYER     1 ZONE     2

    4459 UPPER PART EQS.      4453 LOWER PART EQS.    BAND WIDTH + 1 =   90
 STRESS PERIOD=  2 TIMESTEP= 88 LAYER=  1 ZONE=  2 ACTIVE CELLS= 8912 NUMBER OF EQUATIONS=    8912
 
 SOLVING FOR HEAD 

 NO OUTPUT CONTROL FOR STRESS PERIOD    2   TIME STEP   89
 SOLVING FOR ZETA FOR LAYER     1 ZONE     2

    4431 UPPER PART EQS.      4437 LOWER PART EQS.    BAND WIDTH + 1 =   90
 STRESS PERIOD=  2 TIMESTEP= 89 LAYER=  1 ZONE=  2 ACTIVE CELLS= 8868 NUMBER OF EQUATIONS=    8868
 
 SOLVING FOR HEAD 

 NO OUTPUT CONTROL FOR STRESS PERIOD    2   TIME STEP   90
 SOLVING FOR ZETA FOR LAYER     1 ZONE     2

    4460 UPPER PART EQS.      4457 LOWER PART EQS.    BAND WIDTH + 1 =   93
 STRESS PERIOD=  2 TIMESTEP= 90 LAYER=  1 ZONE=  2 ACTIVE CELLS= 8917 NUMBER OF EQUATIONS=    8917
 
 SOLVING FOR HEAD 

 NO OUTPUT CONTROL FOR STRESS PERIOD    2   TIME STEP   91
 SOLVING FOR ZETA FOR LAYER     1 ZONE     2

    4435 UPPER PART EQS.      4434 LOWER PART EQS.    BAND WIDTH + 1 =   90
 STRESS PERIOD=  2 TIMESTEP= 91 LAYER=  1 ZONE=  2 ACTIVE CELLS= 8869 NUMBER OF EQUATIONS=    8869
 
 SOLVING FOR HEAD 

 NO OUTPUT CONTROL FOR STRESS PERIOD    2   TIME STEP   92
 SOLVING FOR ZETA FOR LAYER     1 ZONE     2

    4461 UPPER PART EQS.      4455 LOWER PART EQS.    BAND WIDTH + 1 =   90
 STRESS PERIOD=  2 TIMESTEP= 92 LAYER=  1 ZONE=  2 ACTIVE CELLS= 8916 NUMBER OF EQUATIONS=    8916
 
 SOLVING FOR HEAD 

 NO OUTPUT CONTROL FOR STRESS PERIOD    2   TIME STEP   93
 SOLVING FOR ZETA FOR LAYER     1 ZONE     2

    4432 UPPER PART EQS.      4437 LOWER PART EQS.    BAND WIDTH + 1 =   90
 STRESS PERIOD=  2 TIMESTEP= 93 LAYER=  1 ZONE=  2 ACTIVE CELLS= 8869 NUMBER OF EQUATIONS=    8869
 
 SOLVING FOR HEAD 

 NO OUTPUT CONTROL FOR STRESS PERIOD    2   TIME STEP   94
 SOLVING FOR ZETA FOR LAYER     1 ZONE     2

    4458 UPPER PART EQS.      4457 LOWER PART EQS.    BAND WIDTH + 1 =   90
 STRESS PERIOD=  2 TIMESTEP= 94 LAYER=  1 ZONE=  2 ACTIVE CELLS= 8915 NUMBER OF EQUATIONS=    8915
 
 SOLVING FOR HEAD 

 NO OUTPUT CONTROL FOR STRESS PERIOD    2   TIME STEP   95
 SOLVING FOR ZETA FOR LAYER     1 ZONE     2

    4434 UPPER PART EQS.      4437 LOWER PART EQS.    BAND WIDTH + 1 =   90
 STRESS PERIOD=  2 TIMESTEP= 95 LAYER=  1 ZONE=  2 ACTIVE CELLS= 8871 NUMBER OF EQUATIONS=    8871
 
 SOLVING FOR HEAD 

 NO OUTPUT CONTROL FOR STRESS PERIOD    2   TIME STEP   96
 SOLVING FOR ZETA FOR LAYER     1 ZONE     2

    4459 UPPER PART EQS.      4454 LOWER PART EQS.    BAND WIDTH + 1 =   91
 STRESS PERIOD=  2 TIMESTEP= 96 LAYER=  1 ZONE=  2 ACTIVE CELLS= 8913 NUMBER OF EQUATIONS=    8913
 
 SOLVING FOR HEAD 

 NO OUTPUT CONTROL FOR STRESS PERIOD    2   TIME STEP   97
 SOLVING FOR ZETA FOR LAYER     1 ZONE     2

    4435 UPPER PART EQS.      4436 LOWER PART EQS.    BAND WIDTH + 1 =   91
 STRESS PERIOD=  2 TIMESTEP= 97 LAYER=  1 ZONE=  2 ACTIVE CELLS= 8871 NUMBER OF EQUATIONS=    8871
 
 SOLVING FOR HEAD 

 NO OUTPUT CONTROL FOR STRESS PERIOD    2   TIME STEP   98
 SOLVING FOR ZETA FOR LAYER     1 ZONE     2

    4460 UPPER PART EQS.      4458 LOWER PART EQS.    BAND WIDTH + 1 =   90
 STRESS PERIOD=  2 TIMESTEP= 98 LAYER=  1 ZONE=  2 ACTIVE CELLS= 8918 NUMBER OF EQUATIONS=    8918
 
 SOLVING FOR HEAD 

 NO OUTPUT CONTROL FOR STRESS PERIOD    2   TIME STEP   99
 SOLVING FOR ZETA FOR LAYER     1 ZONE     2

    4431 UPPER PART EQS.      4437 LOWER PART EQS.    BAND WIDTH + 1 =   89
 STRESS PERIOD=  2 TIMESTEP= 99 LAYER=  1 ZONE=  2 ACTIVE CELLS= 8868 NUMBER OF EQUATIONS=    8868
 
 SOLVING FOR HEAD 

 NO OUTPUT CONTROL FOR STRESS PERIOD    2   TIME STEP  100
 SOLVING FOR ZETA FOR LAYER     1 ZONE     2

    4461 UPPER PART EQS.      4457 LOWER PART EQS.    BAND WIDTH + 1 =   90
 STRESS PERIOD=  2 TIMESTEP=100 LAYER=  1 ZONE=  2 ACTIVE CELLS= 8918 NUMBER OF EQUATIONS=    8918
 
 SOLVING FOR HEAD 

 NO OUTPUT CONTROL FOR STRESS PERIOD    2   TIME STEP  101
 SOLVING FOR ZETA FOR LAYER     1 ZONE     2

    4436 UPPER PART EQS.      4433 LOWER PART EQS.    BAND WIDTH + 1 =   89
 STRESS PERIOD=  2 TIMESTEP=101 LAYER=  1 ZONE=  2 ACTIVE CELLS= 8869 NUMBER OF EQUATIONS=    8869
 
 SOLVING FOR HEAD 

 NO OUTPUT CONTROL FOR STRESS PERIOD    2   TIME STEP  102
 SOLVING FOR ZETA FOR LAYER     1 ZONE     2

    4456 UPPER PART EQS.      4451 LOWER PART EQS.    BAND WIDTH + 1 =   92
 STRESS PERIOD=  2 TIMESTEP=102 LAYER=  1 ZONE=  2 ACTIVE CELLS= 8907 NUMBER OF EQUATIONS=    8907
 
 SOLVING FOR HEAD 

 NO OUTPUT CONTROL FOR STRESS PERIOD    2   TIME STEP  103
 SOLVING FOR ZETA FOR LAYER     1 ZONE     2

    4435 UPPER PART EQS.      4438 LOWER PART EQS.    BAND WIDTH + 1 =   90
 STRESS PERIOD=  2 TIMESTEP=103 LAYER=  1 ZONE=  2 ACTIVE CELLS= 8873 NUMBER OF EQUATIONS=    8873
 
 SOLVING FOR HEAD 

 NO OUTPUT CONTROL FOR STRESS PERIOD    2   TIME STEP  104
 SOLVING FOR ZETA FOR LAYER     1 ZONE     2

    4463 UPPER PART EQS.      4458 LOWER PART EQS.    BAND WIDTH + 1 =   91
 STRESS PERIOD=  2 TIMESTEP=104 LAYER=  1 ZONE=  2 ACTIVE CELLS= 8921 NUMBER OF EQUATIONS=    8921
 
 SOLVING FOR HEAD 

 NO OUTPUT CONTROL FOR STRESS PERIOD    2   TIME STEP  105
 SOLVING FOR ZETA FOR LAYER     1 ZONE     2

    4435 UPPER PART EQS.      4435 LOWER PART EQS.    BAND WIDTH + 1 =   88
 STRESS PERIOD=  2 TIMESTEP=105 LAYER=  1 ZONE=  2 ACTIVE CELLS= 8870 NUMBER OF EQUATIONS=    8870
 
 SOLVING FOR HEAD 

 NO OUTPUT CONTROL FOR STRESS PERIOD    2   TIME STEP  106
 SOLVING FOR ZETA FOR LAYER     1 ZONE     2

    4462 UPPER PART EQS.      4453 LOWER PART EQS.    BAND WIDTH + 1 =   91
 STRESS PERIOD=  2 TIMESTEP=106 LAYER=  1 ZONE=  2 ACTIVE CELLS= 8915 NUMBER OF EQUATIONS=    8915
 
 SOLVING FOR HEAD 

 NO OUTPUT CONTROL FOR STRESS PERIOD    2   TIME STEP  107
 SOLVING FOR ZETA FOR LAYER     1 ZONE     2

    4435 UPPER PART EQS.      4434 LOWER PART EQS.    BAND WIDTH + 1 =   89
 STRESS PERIOD=  2 TIMESTEP=107 LAYER=  1 ZONE=  2 ACTIVE CELLS= 8869 NUMBER OF EQUATIONS=    8869
 
 SOLVING FOR HEAD 

 NO OUTPUT CONTROL FOR STRESS PERIOD    2   TIME STEP  108
 SOLVING FOR ZETA FOR LAYER     1 ZONE     2

    4461 UPPER PART EQS.      4458 LOWER PART EQS.    BAND WIDTH + 1 =   92
 STRESS PERIOD=  2 TIMESTEP=108 LAYER=  1 ZONE=  2 ACTIVE CELLS= 8919 NUMBER OF EQUATIONS=    8919
 
 SOLVING FOR HEAD 

 NO OUTPUT CONTROL FOR STRESS PERIOD    2   TIME STEP  109
 SOLVING FOR ZETA FOR LAYER     1 ZONE     2

    4433 UPPER PART EQS.      4436 LOWER PART EQS.    BAND WIDTH + 1 =   92
 STRESS PERIOD=  2 TIMESTEP=109 LAYER=  1 ZONE=  2 ACTIVE CELLS= 8869 NUMBER OF EQUATIONS=    8869
 
 SOLVING FOR HEAD 

 NO OUTPUT CONTROL FOR STRESS PERIOD    2   TIME STEP  110
 SOLVING FOR ZETA FOR LAYER     1 ZONE     2

    4463 UPPER PART EQS.      4458 LOWER PART EQS.    BAND WIDTH + 1 =   92
 STRESS PERIOD=  2 TIMESTEP=110 LAYER=  1 ZONE=  2 ACTIVE CELLS= 8921 NUMBER OF EQUATIONS=    8921
 
 SOLVING FOR HEAD 

 NO OUTPUT CONTROL FOR STRESS PERIOD    2   TIME STEP  111
 SOLVING FOR ZETA FOR LAYER     1 ZONE     2

    4437 UPPER PART EQS.      4434 LOWER PART EQS.    BAND WIDTH + 1 =   89
 STRESS PERIOD=  2 TIMESTEP=111 LAYER=  1 ZONE=  2 ACTIVE CELLS= 8871 NUMBER OF EQUATIONS=    8871
 
 SOLVING FOR HEAD 

 NO OUTPUT CONTROL FOR STRESS PERIOD    2   TIME STEP  112
 SOLVING FOR ZETA FOR LAYER     1 ZONE     2

    4461 UPPER PART EQS.      4459 LOWER PART EQS.    BAND WIDTH + 1 =   90
 STRESS PERIOD=  2 TIMESTEP=112 LAYER=  1 ZONE=  2 ACTIVE CELLS= 8920 NUMBER OF EQUATIONS=    8920
 
 SOLVING FOR HEAD 

 NO OUTPUT CONTROL FOR STRESS PERIOD    2   TIME STEP  113
 SOLVING FOR ZETA FOR LAYER     1 ZONE     2

    4440 UPPER PART EQS.      4433 LOWER PART EQS.    BAND WIDTH + 1 =   88
 STRESS PERIOD=  2 TIMESTEP=113 LAYER=  1 ZONE=  2 ACTIVE CELLS= 8873 NUMBER OF EQUATIONS=    8873
 
 SOLVING FOR HEAD 

 NO OUTPUT CONTROL FOR STRESS PERIOD    2   TIME STEP  114
 SOLVING FOR ZETA FOR LAYER     1 ZONE     2

    4458 UPPER PART EQS.      4459 LOWER PART EQS.    BAND WIDTH + 1 =   92
 STRESS PERIOD=  2 TIMESTEP=114 LAYER=  1 ZONE=  2 ACTIVE CELLS= 8917 NUMBER OF EQUATIONS=    8917
 
 SOLVING FOR HEAD 

 NO OUTPUT CONTROL FOR STRESS PERIOD    2   TIME STEP  115
 SOLVING FOR ZETA FOR LAYER     1 ZONE     2

    4438 UPPER PART EQS.      4437 LOWER PART EQS.    BAND WIDTH + 1 =   92
 STRESS PERIOD=  2 TIMESTEP=115 LAYER=  1 ZONE=  2 ACTIVE CELLS= 8875 NUMBER OF EQUATIONS=    8875
 
 SOLVING FOR HEAD 

 NO OUTPUT CONTROL FOR STRESS PERIOD    2   TIME STEP  116
 SOLVING FOR ZETA FOR LAYER     1 ZONE     2

    4467 UPPER PART EQS.      4457 LOWER PART EQS.    BAND WIDTH + 1 =   90
 STRESS PERIOD=  2 TIMESTEP=116 LAYER=  1 ZONE=  2 ACTIVE CELLS= 8924 NUMBER OF EQUATIONS=    8924
 
 SOLVING FOR HEAD 

 NO OUTPUT CONTROL FOR STRESS PERIOD    2   TIME STEP  117
 SOLVING FOR ZETA FOR LAYER     1 ZONE     2

    4433 UPPER PART EQS.      4435 LOWER PART EQS.    BAND WIDTH + 1 =   90
 STRESS PERIOD=  2 TIMESTEP=117 LAYER=  1 ZONE=  2 ACTIVE CELLS= 8868 NUMBER OF EQUATIONS=    8868
 
 SOLVING FOR HEAD 

 NO OUTPUT CONTROL FOR STRESS PERIOD    2   TIME STEP  118
 SOLVING FOR ZETA FOR LAYER     1 ZONE     2

    4461 UPPER PART EQS.      4457 LOWER PART EQS.    BAND WIDTH + 1 =   91
 STRESS PERIOD=  2 TIMESTEP=118 LAYER=  1 ZONE=  2 ACTIVE CELLS= 8918 NUMBER OF EQUATIONS=    8918
 
 SOLVING FOR HEAD 

 NO OUTPUT CONTROL FOR STRESS PERIOD    2   TIME STEP  119
 SOLVING FOR ZETA FOR LAYER     1 ZONE     2

    4440 UPPER PART EQS.      4437 LOWER PART EQS.    BAND WIDTH + 1 =   90
 STRESS PERIOD=  2 TIMESTEP=119 LAYER=  1 ZONE=  2 ACTIVE CELLS= 8877 NUMBER OF EQUATIONS=    8877
 
 SOLVING FOR HEAD 

 OUTPUT CONTROL FOR STRESS PERIOD    2   TIME STEP  120
    PRINT BUDGET
    SAVE HEAD FOR ALL LAYERS
 SOLVING FOR ZETA FOR LAYER     1 ZONE     2

    4462 UPPER PART EQS.      4460 LOWER PART EQS.    BAND WIDTH + 1 =   91
 STRESS PERIOD=  2 TIMESTEP=120 LAYER=  1 ZONE=  2 ACTIVE CELLS= 8922 NUMBER OF EQUATIONS=    8922
 UBUDSV SAVING "      ZETASRF  1" ON UNIT 55 AT TIME STEP120, STRESS PERIOD    2


                      VOLUMETRIC SWI ZONE BUDGET FOR ENTIRE MODEL
                     AT END OF TIME STEP  120 IN STRESS PERIOD   2
                                      ZONE     1
  -----------------------------------------------------------------------------------

        CUMULATIVE VOLUMES      L**3       RATES FOR THIS TIME STEP      L**3/T
        ------------------                 ------------------------

              IN:                                      IN:
              ---                                      ---
             BOUNDARIES = 47073386496.0000            BOUNDARIES =      607926.9375
          CONSTANT HEAD =           0.0000         CONSTANT HEAD =           0.0000
            ZONE CHANGE =  4359047168.0000           ZONE CHANGE =        4847.5146
       ZONE CHG TIP/TOE =    69715760.0000      ZONE CHG TIP/TOE =        1117.4281
            ZONE MIXING =           0.0000           ZONE MIXING =           0.0000

               TOTAL IN = 51502145536.0000              TOTAL IN =      613891.8750

             OUT:                                     OUT:
             ----                                     ----
             BOUNDARIES = 36797939712.0000            BOUNDARIES =      545643.5000
          CONSTANT HEAD =           0.0000         CONSTANT HEAD =           0.0000
            ZONE CHANGE = 15174047744.0000           ZONE CHANGE =       70839.2422
       ZONE CHG TIP/TOE =    49131752.0000      ZONE CHG TIP/TOE =         824.0308
            ZONE MIXING =           0.0000           ZONE MIXING =           0.0000

              TOTAL OUT = 52021121024.0000             TOTAL OUT =      617306.7500

               IN - OUT =  -518975488.0000              IN - OUT =       -3414.8750

    PERCENT DISCREPANCY =          -1.00     PERCENT DISCREPANCY =          -0.55



                      VOLUMETRIC SWI ZONE BUDGET FOR ENTIRE MODEL
                     AT END OF TIME STEP  120 IN STRESS PERIOD   2
                                      ZONE     2
  -----------------------------------------------------------------------------------

        CUMULATIVE VOLUMES      L**3       RATES FOR THIS TIME STEP      L**3/T
        ------------------                 ------------------------

              IN:                                      IN:
              ---                                      ---
             BOUNDARIES =   190280864.0000            BOUNDARIES =        2066.2920
          CONSTANT HEAD =           0.0000         CONSTANT HEAD =           0.0000
            ZONE CHANGE = 15174047744.0000           ZONE CHANGE =       70839.2422
       ZONE CHG TIP/TOE =   614630912.0000      ZONE CHG TIP/TOE =        4518.2344
            ZONE MIXING =           0.0000           ZONE MIXING =           0.0000

               TOTAL IN = 15978958848.0000              TOTAL IN =       77423.7656

             OUT:                                     OUT:
             ----                                     ----
             BOUNDARIES = 10465953792.0000            BOUNDARIES =       64349.6953
          CONSTANT HEAD =           0.0000         CONSTANT HEAD =           0.0000
            ZONE CHANGE =  4924550656.0000           ZONE CHANGE =        8541.7188
       ZONE CHG TIP/TOE =    69715760.0000      ZONE CHG TIP/TOE =        1117.4281
            ZONE MIXING =           0.0000           ZONE MIXING =           0.0000

              TOTAL OUT = 15460220928.0000             TOTAL OUT =       74008.8438

               IN - OUT =   518737920.0000              IN - OUT =        3414.9219

    PERCENT DISCREPANCY =           3.30     PERCENT DISCREPANCY =           4.51


 HEAD WILL BE SAVED ON UNIT   51 AT END OF TIME STEP  120, STRESS PERIOD    2
1
  VOLUMETRIC BUDGET FOR ENTIRE MODEL AT END OF TIME STEP  120, STRESS PERIOD   2
  ------------------------------------------------------------------------------

     CUMULATIVE VOLUMES      L**3       RATES FOR THIS TIME STEP      L**3/T
     ------------------                 ------------------------

           IN:                                      IN:
           ---                                      ---
             STORAGE =           0.0000               STORAGE =           0.0000
       CONSTANT HEAD =           0.0000         CONSTANT HEAD =           0.0000
          SWIADDTOCH =           0.0000            SWIADDTOCH =           0.0000
     HEAD DEP BOUNDS =           0.0000       HEAD DEP BOUNDS =           0.0000
            RECHARGE = 52234375168.0000              RECHARGE =      674575.3125

            TOTAL IN = 52234375168.0000              TOTAL IN =      674575.3125

          OUT:                                     OUT:
          ----                                     ----
             STORAGE =           0.0000               STORAGE =           0.0000
       CONSTANT HEAD =           0.0000         CONSTANT HEAD =           0.0000
          SWIADDTOCH =           0.0000            SWIADDTOCH =           0.0000
     HEAD DEP BOUNDS = 52005892096.0000       HEAD DEP BOUNDS =      671630.5625
            RECHARGE =   228022256.0000              RECHARGE =        2944.7622

           TOTAL OUT = 52233912320.0000             TOTAL OUT =      674575.3125

            IN - OUT =      462848.0000              IN - OUT =           0.0000

 PERCENT DISCREPANCY =           0.00     PERCENT DISCREPANCY =           0.00






         TIME SUMMARY AT END OF TIME STEP  120 IN STRESS PERIOD    2
                    SECONDS     MINUTES      HOURS       DAYS        YEARS
                    -----------------------------------------------------------
   TIME STEP LENGTH 3.15576E+06  52596.      876.60      36.525     0.10000    
 STRESS PERIOD TIME 3.78691E+08 6.31151E+06 1.05192E+05  4383.0      12.000    
         TOTAL TIME 6.69021E+09 1.11503E+08 1.85839E+06  77433.      212.00    
1
1
                            STRESS PERIOD NO.    3, LENGTH =   6574.500    
                            -----------------------------------------------

                              NUMBER OF TIME STEPS =   180

                               MULTIPLIER FOR DELT =     1.000

                            INITIAL TIME STEP SIZE =   36.52500    

 REUSING NON-PARAMETER GHB CELLS FROM LAST STRESS PERIOD

   7876 GHB CELLS

 REUSING RECH FROM LAST STRESS PERIOD
 
 SOLVING FOR HEAD 

 NO OUTPUT CONTROL FOR STRESS PERIOD    3   TIME STEP    1
 SOLVING FOR ZETA FOR LAYER     1 ZONE     2

    4432 UPPER PART EQS.      4436 LOWER PART EQS.    BAND WIDTH + 1 =   92
 STRESS PERIOD=  3 TIMESTEP=  1 LAYER=  1 ZONE=  2 ACTIVE CELLS= 8868 NUMBER OF EQUATIONS=    8868
 
 SOLVING FOR HEAD 

 NO OUTPUT CONTROL FOR STRESS PERIOD    3   TIME STEP    2
 SOLVING FOR ZETA FOR LAYER     1 ZONE     2

    4466 UPPER PART EQS.      4455 LOWER PART EQS.    BAND WIDTH + 1 =   91
 STRESS PERIOD=  3 TIMESTEP=  2 LAYER=  1 ZONE=  2 ACTIVE CELLS= 8921 NUMBER OF EQUATIONS=    8921
 
 SOLVING FOR HEAD 

 NO OUTPUT CONTROL FOR STRESS PERIOD    3   TIME STEP    3
 SOLVING FOR ZETA FOR LAYER     1 ZONE     2

    4435 UPPER PART EQS.      4441 LOWER PART EQS.    BAND WIDTH + 1 =   89
 STRESS PERIOD=  3 TIMESTEP=  3 LAYER=  1 ZONE=  2 ACTIVE CELLS= 8876 NUMBER OF EQUATIONS=    8876
 
 SOLVING FOR HEAD 

 NO OUTPUT CONTROL FOR STRESS PERIOD    3   TIME STEP    4
 SOLVING FOR ZETA FOR LAYER     1 ZONE     2

    4464 UPPER PART EQS.      4459 LOWER PART EQS.    BAND WIDTH + 1 =   90
 STRESS PERIOD=  3 TIMESTEP=  4 LAYER=  1 ZONE=  2 ACTIVE CELLS= 8923 NUMBER OF EQUATIONS=    8923
 
 SOLVING FOR HEAD 

 NO OUTPUT CONTROL FOR STRESS PERIOD    3   TIME STEP    5
 SOLVING FOR ZETA FOR LAYER     1 ZONE     2

    4439 UPPER PART EQS.      4434 LOWER PART EQS.    BAND WIDTH + 1 =   89
 STRESS PERIOD=  3 TIMESTEP=  5 LAYER=  1 ZONE=  2 ACTIVE CELLS= 8873 NUMBER OF EQUATIONS=    8873
 
 SOLVING FOR HEAD 

 NO OUTPUT CONTROL FOR STRESS PERIOD    3   TIME STEP    6
 SOLVING FOR ZETA FOR LAYER     1 ZONE     2

    4463 UPPER PART EQS.      4457 LOWER PART EQS.    BAND WIDTH + 1 =   92
 STRESS PERIOD=  3 TIMESTEP=  6 LAYER=  1 ZONE=  2 ACTIVE CELLS= 8920 NUMBER OF EQUATIONS=    8920
 
 SOLVING FOR HEAD 

 NO OUTPUT CONTROL FOR STRESS PERIOD    3   TIME STEP    7
 SOLVING FOR ZETA FOR LAYER     1 ZONE     2

    4435 UPPER PART EQS.      4435 LOWER PART EQS.    BAND WIDTH + 1 =   92
 STRESS PERIOD=  3 TIMESTEP=  7 LAYER=  1 ZONE=  2 ACTIVE CELLS= 8870 NUMBER OF EQUATIONS=    8870
 
 SOLVING FOR HEAD 

 NO OUTPUT CONTROL FOR STRESS PERIOD    3   TIME STEP    8
 SOLVING FOR ZETA FOR LAYER     1 ZONE     2

    4465 UPPER PART EQS.      4461 LOWER PART EQS.    BAND WIDTH + 1 =   89
 STRESS PERIOD=  3 TIMESTEP=  8 LAYER=  1 ZONE=  2 ACTIVE CELLS= 8926 NUMBER OF EQUATIONS=    8926
 
 SOLVING FOR HEAD 

 NO OUTPUT CONTROL FOR STRESS PERIOD    3   TIME STEP    9
 SOLVING FOR ZETA FOR LAYER     1 ZONE     2

    4435 UPPER PART EQS.      4436 LOWER PART EQS.    BAND WIDTH + 1 =   90
 STRESS PERIOD=  3 TIMESTEP=  9 LAYER=  1 ZONE=  2 ACTIVE CELLS= 8871 NUMBER OF EQUATIONS=    8871
 
 SOLVING FOR HEAD 

 NO OUTPUT CONTROL FOR STRESS PERIOD    3   TIME STEP   10
 SOLVING FOR ZETA FOR LAYER     1 ZONE     2

    4463 UPPER PART EQS.      4460 LOWER PART EQS.    BAND WIDTH + 1 =   91
 STRESS PERIOD=  3 TIMESTEP= 10 LAYER=  1 ZONE=  2 ACTIVE CELLS= 8923 NUMBER OF EQUATIONS=    8923
 
 SOLVING FOR HEAD 

 NO OUTPUT CONTROL FOR STRESS PERIOD    3   TIME STEP   11
 SOLVING FOR ZETA FOR LAYER     1 ZONE     2

    4443 UPPER PART EQS.      4436 LOWER PART EQS.    BAND WIDTH + 1 =   88
 STRESS PERIOD=  3 TIMESTEP= 11 LAYER=  1 ZONE=  2 ACTIVE CELLS= 8879 NUMBER OF EQUATIONS=    8879
 
 SOLVING FOR HEAD 

 NO OUTPUT CONTROL FOR STRESS PERIOD    3   TIME STEP   12
 SOLVING FOR ZETA FOR LAYER     1 ZONE     2

    4462 UPPER PART EQS.      4458 LOWER PART EQS.    BAND WIDTH + 1 =   89
 STRESS PERIOD=  3 TIMESTEP= 12 LAYER=  1 ZONE=  2 ACTIVE CELLS= 8920 NUMBER OF EQUATIONS=    8920
 
 SOLVING FOR HEAD 

 NO OUTPUT CONTROL FOR STRESS PERIOD    3   TIME STEP   13
 SOLVING FOR ZETA FOR LAYER     1 ZONE     2

    4439 UPPER PART EQS.      4434 LOWER PART EQS.    BAND WIDTH + 1 =   91
 STRESS PERIOD=  3 TIMESTEP= 13 LAYER=  1 ZONE=  2 ACTIVE CELLS= 8873 NUMBER OF EQUATIONS=    8873
 
 SOLVING FOR HEAD 

 NO OUTPUT CONTROL FOR STRESS PERIOD    3   TIME STEP   14
 SOLVING FOR ZETA FOR LAYER     1 ZONE     2

    4466 UPPER PART EQS.      4459 LOWER PART EQS.    BAND WIDTH + 1 =   91
 STRESS PERIOD=  3 TIMESTEP= 14 LAYER=  1 ZONE=  2 ACTIVE CELLS= 8925 NUMBER OF EQUATIONS=    8925
 
 SOLVING FOR HEAD 

 NO OUTPUT CONTROL FOR STRESS PERIOD    3   TIME STEP   15
 SOLVING FOR ZETA FOR LAYER     1 ZONE     2

    4439 UPPER PART EQS.      4440 LOWER PART EQS.    BAND WIDTH + 1 =   91
 STRESS PERIOD=  3 TIMESTEP= 15 LAYER=  1 ZONE=  2 ACTIVE CELLS= 8879 NUMBER OF EQUATIONS=    8879
 
 SOLVING FOR HEAD 

 NO OUTPUT CONTROL FOR STRESS PERIOD    3   TIME STEP   16
 SOLVING FOR ZETA FOR LAYER     1 ZONE     2

    4462 UPPER PART EQS.      4460 LOWER PART EQS.    BAND WIDTH + 1 =   90
 STRESS PERIOD=  3 TIMESTEP= 16 LAYER=  1 ZONE=  2 ACTIVE CELLS= 8922 NUMBER OF EQUATIONS=    8922
 
 SOLVING FOR HEAD 

 NO OUTPUT CONTROL FOR STRESS PERIOD    3   TIME STEP   17
 SOLVING FOR ZETA FOR LAYER     1 ZONE     2

    4447 UPPER PART EQS.      4437 LOWER PART EQS.    BAND WIDTH + 1 =   89
 STRESS PERIOD=  3 TIMESTEP= 17 LAYER=  1 ZONE=  2 ACTIVE CELLS= 8884 NUMBER OF EQUATIONS=    8884
 
 SOLVING FOR HEAD 

 NO OUTPUT CONTROL FOR STRESS PERIOD    3   TIME STEP   18
 SOLVING FOR ZETA FOR LAYER     1 ZONE     2

    4461 UPPER PART EQS.      4459 LOWER PART EQS.    BAND WIDTH + 1 =   90
 STRESS PERIOD=  3 TIMESTEP= 18 LAYER=  1 ZONE=  2 ACTIVE CELLS= 8920 NUMBER OF EQUATIONS=    8920
 
 SOLVING FOR HEAD 

 NO OUTPUT CONTROL FOR STRESS PERIOD    3   TIME STEP   19
 SOLVING FOR ZETA FOR LAYER     1 ZONE     2

    4442 UPPER PART EQS.      4440 LOWER PART EQS.    BAND WIDTH + 1 =   92
 STRESS PERIOD=  3 TIMESTEP= 19 LAYER=  1 ZONE=  2 ACTIVE CELLS= 8882 NUMBER OF EQUATIONS=    8882
 
 SOLVING FOR HEAD 

 NO OUTPUT CONTROL FOR STRESS PERIOD    3   TIME STEP   20
 SOLVING FOR ZETA FOR LAYER     1 ZONE     2

    4470 UPPER PART EQS.      4462 LOWER PART EQS.    BAND WIDTH + 1 =   91
 STRESS PERIOD=  3 TIMESTEP= 20 LAYER=  1 ZONE=  2 ACTIVE CELLS= 8932 NUMBER OF EQUATIONS=    8932
 
 SOLVING FOR HEAD 

 NO OUTPUT CONTROL FOR STRESS PERIOD    3   TIME STEP   21
 SOLVING FOR ZETA FOR LAYER     1 ZONE     2

    4438 UPPER PART EQS.      4439 LOWER PART EQS.    BAND WIDTH + 1 =   91
 STRESS PERIOD=  3 TIMESTEP= 21 LAYER=  1 ZONE=  2 ACTIVE CELLS= 8877 NUMBER OF EQUATIONS=    8877
 
 SOLVING FOR HEAD 

 NO OUTPUT CONTROL FOR STRESS PERIOD    3   TIME STEP   22
 SOLVING FOR ZETA FOR LAYER     1 ZONE     2

    4468 UPPER PART EQS.      4459 LOWER PART EQS.    BAND WIDTH + 1 =   90
 STRESS PERIOD=  3 TIMESTEP= 22 LAYER=  1 ZONE=  2 ACTIVE CELLS= 8927 NUMBER OF EQUATIONS=    8927
 
 SOLVING FOR HEAD 

 NO OUTPUT CONTROL FOR STRESS PERIOD    3   TIME STEP   23
 SOLVING FOR ZETA FOR LAYER     1 ZONE     2

    4443 UPPER PART EQS.      4442 LOWER PART EQS.    BAND WIDTH + 1 =   91
 STRESS PERIOD=  3 TIMESTEP= 23 LAYER=  1 ZONE=  2 ACTIVE CELLS= 8885 NUMBER OF EQUATIONS=    8885
 
 SOLVING FOR HEAD 

 NO OUTPUT CONTROL FOR STRESS PERIOD    3   TIME STEP   24
 SOLVING FOR ZETA FOR LAYER     1 ZONE     2

    4462 UPPER PART EQS.      4462 LOWER PART EQS.    BAND WIDTH + 1 =   91
 STRESS PERIOD=  3 TIMESTEP= 24 LAYER=  1 ZONE=  2 ACTIVE CELLS= 8924 NUMBER OF EQUATIONS=    8924
 
 SOLVING FOR HEAD 

 NO OUTPUT CONTROL FOR STRESS PERIOD    3   TIME STEP   25
 SOLVING FOR ZETA FOR LAYER     1 ZONE     2

    4445 UPPER PART EQS.      4438 LOWER PART EQS.    BAND WIDTH + 1 =   91
 STRESS PERIOD=  3 TIMESTEP= 25 LAYER=  1 ZONE=  2 ACTIVE CELLS= 8883 NUMBER OF EQUATIONS=    8883
 
 SOLVING FOR HEAD 

 NO OUTPUT CONTROL FOR STRESS PERIOD    3   TIME STEP   26
 SOLVING FOR ZETA FOR LAYER     1 ZONE     2

    4469 UPPER PART EQS.      4459 LOWER PART EQS.    BAND WIDTH + 1 =   90
 STRESS PERIOD=  3 TIMESTEP= 26 LAYER=  1 ZONE=  2 ACTIVE CELLS= 8928 NUMBER OF EQUATIONS=    8928
 
 SOLVING FOR HEAD 

 NO OUTPUT CONTROL FOR STRESS PERIOD    3   TIME STEP   27
 SOLVING FOR ZETA FOR LAYER     1 ZONE     2

    4442 UPPER PART EQS.      4438 LOWER PART EQS.    BAND WIDTH + 1 =   90
 STRESS PERIOD=  3 TIMESTEP= 27 LAYER=  1 ZONE=  2 ACTIVE CELLS= 8880 NUMBER OF EQUATIONS=    8880
 
 SOLVING FOR HEAD 

 NO OUTPUT CONTROL FOR STRESS PERIOD    3   TIME STEP   28
 SOLVING FOR ZETA FOR LAYER     1 ZONE     2

    4468 UPPER PART EQS.      4463 LOWER PART EQS.    BAND WIDTH + 1 =   90
 STRESS PERIOD=  3 TIMESTEP= 28 LAYER=  1 ZONE=  2 ACTIVE CELLS= 8931 NUMBER OF EQUATIONS=    8931
 
 SOLVING FOR HEAD 

 NO OUTPUT CONTROL FOR STRESS PERIOD    3   TIME STEP   29
 SOLVING FOR ZETA FOR LAYER     1 ZONE     2

    4442 UPPER PART EQS.      4439 LOWER PART EQS.    BAND WIDTH + 1 =   91
 STRESS PERIOD=  3 TIMESTEP= 29 LAYER=  1 ZONE=  2 ACTIVE CELLS= 8881 NUMBER OF EQUATIONS=    8881
 
 SOLVING FOR HEAD 

 NO OUTPUT CONTROL FOR STRESS PERIOD    3   TIME STEP   30
 SOLVING FOR ZETA FOR LAYER     1 ZONE     2

    4464 UPPER PART EQS.      4459 LOWER PART EQS.    BAND WIDTH + 1 =   91
 STRESS PERIOD=  3 TIMESTEP= 30 LAYER=  1 ZONE=  2 ACTIVE CELLS= 8923 NUMBER OF EQUATIONS=    8923
 
 SOLVING FOR HEAD 

 NO OUTPUT CONTROL FOR STRESS PERIOD    3   TIME STEP   31
 SOLVING FOR ZETA FOR LAYER     1 ZONE     2

    4442 UPPER PART EQS.      4439 LOWER PART EQS.    BAND WIDTH + 1 =   92
 STRESS PERIOD=  3 TIMESTEP= 31 LAYER=  1 ZONE=  2 ACTIVE CELLS= 8881 NUMBER OF EQUATIONS=    8881
 
 SOLVING FOR HEAD 

 NO OUTPUT CONTROL FOR STRESS PERIOD    3   TIME STEP   32
 SOLVING FOR ZETA FOR LAYER     1 ZONE     2

    4469 UPPER PART EQS.      4461 LOWER PART EQS.    BAND WIDTH + 1 =   90
 STRESS PERIOD=  3 TIMESTEP= 32 LAYER=  1 ZONE=  2 ACTIVE CELLS= 8930 NUMBER OF EQUATIONS=    8930
 
 SOLVING FOR HEAD 

 NO OUTPUT CONTROL FOR STRESS PERIOD    3   TIME STEP   33
 SOLVING FOR ZETA FOR LAYER     1 ZONE     2

    4439 UPPER PART EQS.      4439 LOWER PART EQS.    BAND WIDTH + 1 =   90
 STRESS PERIOD=  3 TIMESTEP= 33 LAYER=  1 ZONE=  2 ACTIVE CELLS= 8878 NUMBER OF EQUATIONS=    8878
 
 SOLVING FOR HEAD 

 NO OUTPUT CONTROL FOR STRESS PERIOD    3   TIME STEP   34
 SOLVING FOR ZETA FOR LAYER     1 ZONE     2

    4469 UPPER PART EQS.      4465 LOWER PART EQS.    BAND WIDTH + 1 =   90
 STRESS PERIOD=  3 TIMESTEP= 34 LAYER=  1 ZONE=  2 ACTIVE CELLS= 8934 NUMBER OF EQUATIONS=    8934
 
 SOLVING FOR HEAD 

 NO OUTPUT CONTROL FOR STRESS PERIOD    3   TIME STEP   35
 SOLVING FOR ZETA FOR LAYER     1 ZONE     2

    4447 UPPER PART EQS.      4440 LOWER PART EQS.    BAND WIDTH + 1 =   89
 STRESS PERIOD=  3 TIMESTEP= 35 LAYER=  1 ZONE=  2 ACTIVE CELLS= 8887 NUMBER OF EQUATIONS=    8887
 
 SOLVING FOR HEAD 

 NO OUTPUT CONTROL FOR STRESS PERIOD    3   TIME STEP   36
 SOLVING FOR ZETA FOR LAYER     1 ZONE     2

    4462 UPPER PART EQS.      4457 LOWER PART EQS.    BAND WIDTH + 1 =   90
 STRESS PERIOD=  3 TIMESTEP= 36 LAYER=  1 ZONE=  2 ACTIVE CELLS= 8919 NUMBER OF EQUATIONS=    8919
 
 SOLVING FOR HEAD 

 NO OUTPUT CONTROL FOR STRESS PERIOD    3   TIME STEP   37
 SOLVING FOR ZETA FOR LAYER     1 ZONE     2

    4445 UPPER PART EQS.      4443 LOWER PART EQS.    BAND WIDTH + 1 =   90
 STRESS PERIOD=  3 TIMESTEP= 37 LAYER=  1 ZONE=  2 ACTIVE CELLS= 8888 NUMBER OF EQUATIONS=    8888
 
 SOLVING FOR HEAD 

 NO OUTPUT CONTROL FOR STRESS PERIOD    3   TIME STEP   38
 SOLVING FOR ZETA FOR LAYER     1 ZONE     2

    4469 UPPER PART EQS.      4464 LOWER PART EQS.    BAND WIDTH + 1 =   89
 STRESS PERIOD=  3 TIMESTEP= 38 LAYER=  1 ZONE=  2 ACTIVE CELLS= 8933 NUMBER OF EQUATIONS=    8933
 
 SOLVING FOR HEAD 

 NO OUTPUT CONTROL FOR STRESS PERIOD    3   TIME STEP   39
 SOLVING FOR ZETA FOR LAYER     1 ZONE     2

    4442 UPPER PART EQS.      4441 LOWER PART EQS.    BAND WIDTH + 1 =   91
 STRESS PERIOD=  3 TIMESTEP= 39 LAYER=  1 ZONE=  2 ACTIVE CELLS= 8883 NUMBER OF EQUATIONS=    8883
 
 SOLVING FOR HEAD 

 NO OUTPUT CONTROL FOR STRESS PERIOD    3   TIME STEP   40
 SOLVING FOR ZETA FOR LAYER     1 ZONE     2

    4467 UPPER PART EQS.      4459 LOWER PART EQS.    BAND WIDTH + 1 =   91
 STRESS PERIOD=  3 TIMESTEP= 40 LAYER=  1 ZONE=  2 ACTIVE CELLS= 8926 NUMBER OF EQUATIONS=    8926
 
 SOLVING FOR HEAD 

 NO OUTPUT CONTROL FOR STRESS PERIOD    3   TIME STEP   41
 SOLVING FOR ZETA FOR LAYER     1 ZONE     2

    4443 UPPER PART EQS.      4446 LOWER PART EQS.    BAND WIDTH + 1 =   90
 STRESS PERIOD=  3 TIMESTEP= 41 LAYER=  1 ZONE=  2 ACTIVE CELLS= 8889 NUMBER OF EQUATIONS=    8889
 
 SOLVING FOR HEAD 

 NO OUTPUT CONTROL FOR STRESS PERIOD    3   TIME STEP   42
 SOLVING FOR ZETA FOR LAYER     1 ZONE     2

    4465 UPPER PART EQS.      4460 LOWER PART EQS.    BAND WIDTH + 1 =   91
 STRESS PERIOD=  3 TIMESTEP= 42 LAYER=  1 ZONE=  2 ACTIVE CELLS= 8925 NUMBER OF EQUATIONS=    8925
 
 SOLVING FOR HEAD 

 NO OUTPUT CONTROL FOR STRESS PERIOD    3   TIME STEP   43
 SOLVING FOR ZETA FOR LAYER     1 ZONE     2

    4446 UPPER PART EQS.      4441 LOWER PART EQS.    BAND WIDTH + 1 =   89
 STRESS PERIOD=  3 TIMESTEP= 43 LAYER=  1 ZONE=  2 ACTIVE CELLS= 8887 NUMBER OF EQUATIONS=    8887
 
 SOLVING FOR HEAD 

 NO OUTPUT CONTROL FOR STRESS PERIOD    3   TIME STEP   44
 SOLVING FOR ZETA FOR LAYER     1 ZONE     2

    4469 UPPER PART EQS.      4463 LOWER PART EQS.    BAND WIDTH + 1 =   89
 STRESS PERIOD=  3 TIMESTEP= 44 LAYER=  1 ZONE=  2 ACTIVE CELLS= 8932 NUMBER OF EQUATIONS=    8932
 
 SOLVING FOR HEAD 

 NO OUTPUT CONTROL FOR STRESS PERIOD    3   TIME STEP   45
 SOLVING FOR ZETA FOR LAYER     1 ZONE     2

    4444 UPPER PART EQS.      4440 LOWER PART EQS.    BAND WIDTH + 1 =   89
 STRESS PERIOD=  3 TIMESTEP= 45 LAYER=  1 ZONE=  2 ACTIVE CELLS= 8884 NUMBER OF EQUATIONS=    8884
 
 SOLVING FOR HEAD 

 NO OUTPUT CONTROL FOR STRESS PERIOD    3   TIME STEP   46
 SOLVING FOR ZETA FOR LAYER     1 ZONE     2

    4467 UPPER PART EQS.      4461 LOWER PART EQS.    BAND WIDTH + 1 =   90
 STRESS PERIOD=  3 TIMESTEP= 46 LAYER=  1 ZONE=  2 ACTIVE CELLS= 8928 NUMBER OF EQUATIONS=    8928
 
 SOLVING FOR HEAD 

 NO OUTPUT CONTROL FOR STRESS PERIOD    3   TIME STEP   47
 SOLVING FOR ZETA FOR LAYER     1 ZONE     2

    4448 UPPER PART EQS.      4438 LOWER PART EQS.    BAND WIDTH + 1 =   90
 STRESS PERIOD=  3 TIMESTEP= 47 LAYER=  1 ZONE=  2 ACTIVE CELLS= 8886 NUMBER OF EQUATIONS=    8886
 
 SOLVING FOR HEAD 

 NO OUTPUT CONTROL FOR STRESS PERIOD    3   TIME STEP   48
 SOLVING FOR ZETA FOR LAYER     1 ZONE     2

    4468 UPPER PART EQS.      4461 LOWER PART EQS.    BAND WIDTH + 1 =   91
 STRESS PERIOD=  3 TIMESTEP= 48 LAYER=  1 ZONE=  2 ACTIVE CELLS= 8929 NUMBER OF EQUATIONS=    8929
 
 SOLVING FOR HEAD 

 NO OUTPUT CONTROL FOR STRESS PERIOD    3   TIME STEP   49
 SOLVING FOR ZETA FOR LAYER     1 ZONE     2

    4441 UPPER PART EQS.      4444 LOWER PART EQS.    BAND WIDTH + 1 =   90
 STRESS PERIOD=  3 TIMESTEP= 49 LAYER=  1 ZONE=  2 ACTIVE CELLS= 8885 NUMBER OF EQUATIONS=    8885
 
 SOLVING FOR HEAD 

 NO OUTPUT CONTROL FOR STRESS PERIOD    3   TIME STEP   50
 SOLVING FOR ZETA FOR LAYER     1 ZONE     2

    4471 UPPER PART EQS.      4463 LOWER PART EQS.    BAND WIDTH + 1 =   90
 STRESS PERIOD=  3 TIMESTEP= 50 LAYER=  1 ZONE=  2 ACTIVE CELLS= 8934 NUMBER OF EQUATIONS=    8934
 
 SOLVING FOR HEAD 

 NO OUTPUT CONTROL FOR STRESS PERIOD    3   TIME STEP   51
 SOLVING FOR ZETA FOR LAYER     1 ZONE     2

    4446 UPPER PART EQS.      4441 LOWER PART EQS.    BAND WIDTH + 1 =   89
 STRESS PERIOD=  3 TIMESTEP= 51 LAYER=  1 ZONE=  2 ACTIVE CELLS= 8887 NUMBER OF EQUATIONS=    8887
 
 SOLVING FOR HEAD 

 NO OUTPUT CONTROL FOR STRESS PERIOD    3   TIME STEP   52
 SOLVING FOR ZETA FOR LAYER     1 ZONE     2

    4468 UPPER PART EQS.      4464 LOWER PART EQS.    BAND WIDTH + 1 =   89
 STRESS PERIOD=  3 TIMESTEP= 52 LAYER=  1 ZONE=  2 ACTIVE CELLS= 8932 NUMBER OF EQUATIONS=    8932
 
 SOLVING FOR HEAD 

 NO OUTPUT CONTROL FOR STRESS PERIOD    3   TIME STEP   53
 SOLVING FOR ZETA FOR LAYER     1 ZONE     2

    4446 UPPER PART EQS.      4443 LOWER PART EQS.    BAND WIDTH + 1 =   88
 STRESS PERIOD=  3 TIMESTEP= 53 LAYER=  1 ZONE=  2 ACTIVE CELLS= 8889 NUMBER OF EQUATIONS=    8889
 
 SOLVING FOR HEAD 

 NO OUTPUT CONTROL FOR STRESS PERIOD    3   TIME STEP   54
 SOLVING FOR ZETA FOR LAYER     1 ZONE     2

    4464 UPPER PART EQS.      4459 LOWER PART EQS.    BAND WIDTH + 1 =   90
 STRESS PERIOD=  3 TIMESTEP= 54 LAYER=  1 ZONE=  2 ACTIVE CELLS= 8923 NUMBER OF EQUATIONS=    8923
 
 SOLVING FOR HEAD 

 NO OUTPUT CONTROL FOR STRESS PERIOD    3   TIME STEP   55
 SOLVING FOR ZETA FOR LAYER     1 ZONE     2

    4448 UPPER PART EQS.      4446 LOWER PART EQS.    BAND WIDTH + 1 =   89
 STRESS PERIOD=  3 TIMESTEP= 55 LAYER=  1 ZONE=  2 ACTIVE CELLS= 8894 NUMBER OF EQUATIONS=    8894
 
 SOLVING FOR HEAD 

 NO OUTPUT CONTROL FOR STRESS PERIOD    3   TIME STEP   56
 SOLVING FOR ZETA FOR LAYER     1 ZONE     2

    4471 UPPER PART EQS.      4458 LOWER PART EQS.    BAND WIDTH + 1 =   90
 STRESS PERIOD=  3 TIMESTEP= 56 LAYER=  1 ZONE=  2 ACTIVE CELLS= 8929 NUMBER OF EQUATIONS=    8929
 
 SOLVING FOR HEAD 

 NO OUTPUT CONTROL FOR STRESS PERIOD    3   TIME STEP   57
 SOLVING FOR ZETA FOR LAYER     1 ZONE     2

    4444 UPPER PART EQS.      4442 LOWER PART EQS.    BAND WIDTH + 1 =   90
 STRESS PERIOD=  3 TIMESTEP= 57 LAYER=  1 ZONE=  2 ACTIVE CELLS= 8886 NUMBER OF EQUATIONS=    8886
 
 SOLVING FOR HEAD 

 NO OUTPUT CONTROL FOR STRESS PERIOD    3   TIME STEP   58
 SOLVING FOR ZETA FOR LAYER     1 ZONE     2

    4465 UPPER PART EQS.      4465 LOWER PART EQS.    BAND WIDTH + 1 =   90
 STRESS PERIOD=  3 TIMESTEP= 58 LAYER=  1 ZONE=  2 ACTIVE CELLS= 8930 NUMBER OF EQUATIONS=    8930
 
 SOLVING FOR HEAD 

 NO OUTPUT CONTROL FOR STRESS PERIOD    3   TIME STEP   59
 SOLVING FOR ZETA FOR LAYER     1 ZONE     2

    4452 UPPER PART EQS.      4447 LOWER PART EQS.    BAND WIDTH + 1 =   91
 STRESS PERIOD=  3 TIMESTEP= 59 LAYER=  1 ZONE=  2 ACTIVE CELLS= 8899 NUMBER OF EQUATIONS=    8899
 
 SOLVING FOR HEAD 

 OUTPUT CONTROL FOR STRESS PERIOD    3   TIME STEP   60
    PRINT BUDGET
    SAVE HEAD FOR ALL LAYERS
 SOLVING FOR ZETA FOR LAYER     1 ZONE     2

    4464 UPPER PART EQS.      4460 LOWER PART EQS.    BAND WIDTH + 1 =   90
 STRESS PERIOD=  3 TIMESTEP= 60 LAYER=  1 ZONE=  2 ACTIVE CELLS= 8924 NUMBER OF EQUATIONS=    8924
 UBUDSV SAVING "      ZETASRF  1" ON UNIT 55 AT TIME STEP 60, STRESS PERIOD    3


                      VOLUMETRIC SWI ZONE BUDGET FOR ENTIRE MODEL
                     AT END OF TIME STEP   60 IN STRESS PERIOD   3
                                      ZONE     1
  -----------------------------------------------------------------------------------

        CUMULATIVE VOLUMES      L**3       RATES FOR THIS TIME STEP      L**3/T
        ------------------                 ------------------------

              IN:                                      IN:
              ---                                      ---
             BOUNDARIES = 48405651456.0000            BOUNDARIES =      607926.9375
          CONSTANT HEAD =           0.0000         CONSTANT HEAD =           0.0000
            ZONE CHANGE =  4368934912.0000           ZONE CHANGE =        4581.5327
       ZONE CHG TIP/TOE =    72658928.0000      ZONE CHG TIP/TOE =        1193.7783
            ZONE MIXING =           0.0000           ZONE MIXING =           0.0000

               TOTAL IN = 52847243264.0000              TOTAL IN =      613702.2500

             OUT:                                     OUT:
             ----                                     ----
             BOUNDARIES = 37991596032.0000            BOUNDARIES =      547409.4375
          CONSTANT HEAD =           0.0000         CONSTANT HEAD =           0.0000
            ZONE CHANGE = 15328349184.0000           ZONE CHANGE =       68285.2266
       ZONE CHG TIP/TOE =    51272180.0000      ZONE CHG TIP/TOE =         855.2195
            ZONE MIXING =           0.0000           ZONE MIXING =           0.0000

              TOTAL OUT = 53371219968.0000             TOTAL OUT =      616549.9375

               IN - OUT =  -523976704.0000              IN - OUT =       -2847.6875

    PERCENT DISCREPANCY =          -0.99     PERCENT DISCREPANCY =          -0.46



                      VOLUMETRIC SWI ZONE BUDGET FOR ENTIRE MODEL
                     AT END OF TIME STEP   60 IN STRESS PERIOD   3
                                      ZONE     2
  -----------------------------------------------------------------------------------

        CUMULATIVE VOLUMES      L**3       RATES FOR THIS TIME STEP      L**3/T
        ------------------                 ------------------------

              IN:                                      IN:
              ---                                      ---
             BOUNDARIES =   194800080.0000            BOUNDARIES =        2058.8040
          CONSTANT HEAD =           0.0000         CONSTANT HEAD =           0.0000
            ZONE CHANGE = 15328349184.0000           ZONE CHANGE =       68285.2266
       ZONE CHG TIP/TOE =   622539712.0000      ZONE CHG TIP/TOE =        4027.0840
            ZONE MIXING =           0.0000           ZONE MIXING =           0.0000

               TOTAL IN = 16145688576.0000              TOTAL IN =       74371.1172

             OUT:                                     OUT:
             ----                                     ----
             BOUNDARIES = 10609086464.0000            BOUNDARIES =       62576.2812
          CONSTANT HEAD =           0.0000         CONSTANT HEAD =           0.0000
            ZONE CHANGE =  4940206592.0000           ZONE CHANGE =        7753.3975
       ZONE CHG TIP/TOE =    72658928.0000      ZONE CHG TIP/TOE =        1193.7783
            ZONE MIXING =           0.0000           ZONE MIXING =           0.0000

              TOTAL OUT = 15621951488.0000             TOTAL OUT =       71523.4609

               IN - OUT =   523737088.0000              IN - OUT =        2847.6562

    PERCENT DISCREPANCY =           3.30     PERCENT DISCREPANCY =           3.90


 HEAD WILL BE SAVED ON UNIT   51 AT END OF TIME STEP   60, STRESS PERIOD    3
1
  VOLUMETRIC BUDGET FOR ENTIRE MODEL AT END OF TIME STEP   60, STRESS PERIOD   3
  ------------------------------------------------------------------------------

     CUMULATIVE VOLUMES      L**3       RATES FOR THIS TIME STEP      L**3/T
     ------------------                 ------------------------

           IN:                                      IN:
           ---                                      ---
             STORAGE =           0.0000               STORAGE =           0.0000
       CONSTANT HEAD =           0.0000         CONSTANT HEAD =           0.0000
          SWIADDTOCH =           0.0000            SWIADDTOCH =           0.0000
     HEAD DEP BOUNDS =           0.0000       HEAD DEP BOUNDS =           0.0000
            RECHARGE = 53712621568.0000              RECHARGE =      674575.3125

            TOTAL IN = 53712621568.0000              TOTAL IN =      674575.3125

          OUT:                                     OUT:
          ----                                     ----
             STORAGE =           0.0000               STORAGE =           0.0000
       CONSTANT HEAD =           0.0000         CONSTANT HEAD =           0.0000
          SWIADDTOCH =           0.0000            SWIADDTOCH =           0.0000
     HEAD DEP BOUNDS = 53477748736.0000       HEAD DEP BOUNDS =      671630.5625
            RECHARGE =   234475376.0000              RECHARGE =        2944.7622

           TOTAL OUT = 53712224256.0000             TOTAL OUT =      674575.3125

            IN - OUT =      397312.0000              IN - OUT =           0.0000

 PERCENT DISCREPANCY =           0.00     PERCENT DISCREPANCY =           0.00






         TIME SUMMARY AT END OF TIME STEP   60 IN STRESS PERIOD    3
                    SECONDS     MINUTES      HOURS       DAYS        YEARS
                    -----------------------------------------------------------
   TIME STEP LENGTH 3.15576E+06  52596.      876.60      36.525     0.10000    
 STRESS PERIOD TIME 1.89346E+08 3.15576E+06  52596.      2191.5      6.0000    
         TOTAL TIME 6.87955E+09 1.14659E+08 1.91099E+06  79624.      218.00    
1
 
 SOLVING FOR HEAD 

 NO OUTPUT CONTROL FOR STRESS PERIOD    3   TIME STEP   61
 SOLVING FOR ZETA FOR LAYER     1 ZONE     2

    4447 UPPER PART EQS.      4442 LOWER PART EQS.    BAND WIDTH + 1 =   90
 STRESS PERIOD=  3 TIMESTEP= 61 LAYER=  1 ZONE=  2 ACTIVE CELLS= 8889 NUMBER OF EQUATIONS=    8889
 
 SOLVING FOR HEAD 

 NO OUTPUT CONTROL FOR STRESS PERIOD    3   TIME STEP   62
 SOLVING FOR ZETA FOR LAYER     1 ZONE     2

    4469 UPPER PART EQS.      4460 LOWER PART EQS.    BAND WIDTH + 1 =   90
 STRESS PERIOD=  3 TIMESTEP= 62 LAYER=  1 ZONE=  2 ACTIVE CELLS= 8929 NUMBER OF EQUATIONS=    8929
 
 SOLVING FOR HEAD 

 NO OUTPUT CONTROL FOR STRESS PERIOD    3   TIME STEP   63
 SOLVING FOR ZETA FOR LAYER     1 ZONE     2

    4444 UPPER PART EQS.      4445 LOWER PART EQS.    BAND WIDTH + 1 =   90
 STRESS PERIOD=  3 TIMESTEP= 63 LAYER=  1 ZONE=  2 ACTIVE CELLS= 8889 NUMBER OF EQUATIONS=    8889
 
 SOLVING FOR HEAD 

 NO OUTPUT CONTROL FOR STRESS PERIOD    3   TIME STEP   64
 SOLVING FOR ZETA FOR LAYER     1 ZONE     2

    4469 UPPER PART EQS.      4464 LOWER PART EQS.    BAND WIDTH + 1 =   89
 STRESS PERIOD=  3 TIMESTEP= 64 LAYER=  1 ZONE=  2 ACTIVE CELLS= 8933 NUMBER OF EQUATIONS=    8933
 
 SOLVING FOR HEAD 

 NO OUTPUT CONTROL FOR STRESS PERIOD    3   TIME STEP   65
 SOLVING FOR ZETA FOR LAYER     1 ZONE     2

    4452 UPPER PART EQS.      4443 LOWER PART EQS.    BAND WIDTH + 1 =   89
 STRESS PERIOD=  3 TIMESTEP= 65 LAYER=  1 ZONE=  2 ACTIVE CELLS= 8895 NUMBER OF EQUATIONS=    8895
 
 SOLVING FOR HEAD 

 NO OUTPUT CONTROL FOR STRESS PERIOD    3   TIME STEP   66
 SOLVING FOR ZETA FOR LAYER     1 ZONE     2

    4463 UPPER PART EQS.      4463 LOWER PART EQS.    BAND WIDTH + 1 =   91
 STRESS PERIOD=  3 TIMESTEP= 66 LAYER=  1 ZONE=  2 ACTIVE CELLS= 8926 NUMBER OF EQUATIONS=    8926
 
 SOLVING FOR HEAD 

 NO OUTPUT CONTROL FOR STRESS PERIOD    3   TIME STEP   67
 SOLVING FOR ZETA FOR LAYER     1 ZONE     2

    4454 UPPER PART EQS.      4446 LOWER PART EQS.    BAND WIDTH + 1 =   89
 STRESS PERIOD=  3 TIMESTEP= 67 LAYER=  1 ZONE=  2 ACTIVE CELLS= 8900 NUMBER OF EQUATIONS=    8900
 
 SOLVING FOR HEAD 

 NO OUTPUT CONTROL FOR STRESS PERIOD    3   TIME STEP   68
 SOLVING FOR ZETA FOR LAYER     1 ZONE     2

    4468 UPPER PART EQS.      4467 LOWER PART EQS.    BAND WIDTH + 1 =   89
 STRESS PERIOD=  3 TIMESTEP= 68 LAYER=  1 ZONE=  2 ACTIVE CELLS= 8935 NUMBER OF EQUATIONS=    8935
 
 SOLVING FOR HEAD 

 NO OUTPUT CONTROL FOR STRESS PERIOD    3   TIME STEP   69
 SOLVING FOR ZETA FOR LAYER     1 ZONE     2

    4450 UPPER PART EQS.      4442 LOWER PART EQS.    BAND WIDTH + 1 =   90
 STRESS PERIOD=  3 TIMESTEP= 69 LAYER=  1 ZONE=  2 ACTIVE CELLS= 8892 NUMBER OF EQUATIONS=    8892
 
 SOLVING FOR HEAD 

 NO OUTPUT CONTROL FOR STRESS PERIOD    3   TIME STEP   70
 SOLVING FOR ZETA FOR LAYER     1 ZONE     2

    4469 UPPER PART EQS.      4465 LOWER PART EQS.    BAND WIDTH + 1 =   91
 STRESS PERIOD=  3 TIMESTEP= 70 LAYER=  1 ZONE=  2 ACTIVE CELLS= 8934 NUMBER OF EQUATIONS=    8934
 
 SOLVING FOR HEAD 

 NO OUTPUT CONTROL FOR STRESS PERIOD    3   TIME STEP   71
 SOLVING FOR ZETA FOR LAYER     1 ZONE     2

    4452 UPPER PART EQS.      4444 LOWER PART EQS.    BAND WIDTH + 1 =   91
 STRESS PERIOD=  3 TIMESTEP= 71 LAYER=  1 ZONE=  2 ACTIVE CELLS= 8896 NUMBER OF EQUATIONS=    8896
 
 SOLVING FOR HEAD 

 NO OUTPUT CONTROL FOR STRESS PERIOD    3   TIME STEP   72
 SOLVING FOR ZETA FOR LAYER     1 ZONE     2

    4466 UPPER PART EQS.      4462 LOWER PART EQS.    BAND WIDTH + 1 =   91
 STRESS PERIOD=  3 TIMESTEP= 72 LAYER=  1 ZONE=  2 ACTIVE CELLS= 8928 NUMBER OF EQUATIONS=    8928
 
 SOLVING FOR HEAD 

 NO OUTPUT CONTROL FOR STRESS PERIOD    3   TIME STEP   73
 SOLVING FOR ZETA FOR LAYER     1 ZONE     2

    4454 UPPER PART EQS.      4445 LOWER PART EQS.    BAND WIDTH + 1 =   91
 STRESS PERIOD=  3 TIMESTEP= 73 LAYER=  1 ZONE=  2 ACTIVE CELLS= 8899 NUMBER OF EQUATIONS=    8899
 
 SOLVING FOR HEAD 

 NO OUTPUT CONTROL FOR STRESS PERIOD    3   TIME STEP   74
 SOLVING FOR ZETA FOR LAYER     1 ZONE     2

    4469 UPPER PART EQS.      4469 LOWER PART EQS.    BAND WIDTH + 1 =   91
 STRESS PERIOD=  3 TIMESTEP= 74 LAYER=  1 ZONE=  2 ACTIVE CELLS= 8938 NUMBER OF EQUATIONS=    8938
 
 SOLVING FOR HEAD 

 NO OUTPUT CONTROL FOR STRESS PERIOD    3   TIME STEP   75
 SOLVING FOR ZETA FOR LAYER     1 ZONE     2

    4450 UPPER PART EQS.      4443 LOWER PART EQS.    BAND WIDTH + 1 =   91
 STRESS PERIOD=  3 TIMESTEP= 75 LAYER=  1 ZONE=  2 ACTIVE CELLS= 8893 NUMBER OF EQUATIONS=    8893
 
 SOLVING FOR HEAD 

 NO OUTPUT CONTROL FOR STRESS PERIOD    3   TIME STEP   76
 SOLVING FOR ZETA FOR LAYER     1 ZONE     2

    4471 UPPER PART EQS.      4468 LOWER PART EQS.    BAND WIDTH + 1 =   92
 STRESS PERIOD=  3 TIMESTEP= 76 LAYER=  1 ZONE=  2 ACTIVE CELLS= 8939 NUMBER OF EQUATIONS=    8939
 
 SOLVING FOR HEAD 

 NO OUTPUT CONTROL FOR STRESS PERIOD    3   TIME STEP   77
 SOLVING FOR ZETA FOR LAYER     1 ZONE     2

    4451 UPPER PART EQS.      4445 LOWER PART EQS.    BAND WIDTH + 1 =   91
 STRESS PERIOD=  3 TIMESTEP= 77 LAYER=  1 ZONE=  2 ACTIVE CELLS= 8896 NUMBER OF EQUATIONS=    8896
 
 SOLVING FOR HEAD 

 NO OUTPUT CONTROL FOR STRESS PERIOD    3   TIME STEP   78
 SOLVING FOR ZETA FOR LAYER     1 ZONE     2

    4466 UPPER PART EQS.      4464 LOWER PART EQS.    BAND WIDTH + 1 =   90
 STRESS PERIOD=  3 TIMESTEP= 78 LAYER=  1 ZONE=  2 ACTIVE CELLS= 8930 NUMBER OF EQUATIONS=    8930
 
 SOLVING FOR HEAD 

 NO OUTPUT CONTROL FOR STRESS PERIOD    3   TIME STEP   79
 SOLVING FOR ZETA FOR LAYER     1 ZONE     2

    4455 UPPER PART EQS.      4449 LOWER PART EQS.    BAND WIDTH + 1 =   90
 STRESS PERIOD=  3 TIMESTEP= 79 LAYER=  1 ZONE=  2 ACTIVE CELLS= 8904 NUMBER OF EQUATIONS=    8904
 
 SOLVING FOR HEAD 

 NO OUTPUT CONTROL FOR STRESS PERIOD    3   TIME STEP   80
 SOLVING FOR ZETA FOR LAYER     1 ZONE     2

    4465 UPPER PART EQS.      4465 LOWER PART EQS.    BAND WIDTH + 1 =   89
 STRESS PERIOD=  3 TIMESTEP= 80 LAYER=  1 ZONE=  2 ACTIVE CELLS= 8930 NUMBER OF EQUATIONS=    8930
 
 SOLVING FOR HEAD 

 NO OUTPUT CONTROL FOR STRESS PERIOD    3   TIME STEP   81
 SOLVING FOR ZETA FOR LAYER     1 ZONE     2

    4456 UPPER PART EQS.      4445 LOWER PART EQS.    BAND WIDTH + 1 =   89
 STRESS PERIOD=  3 TIMESTEP= 81 LAYER=  1 ZONE=  2 ACTIVE CELLS= 8901 NUMBER OF EQUATIONS=    8901
 
 SOLVING FOR HEAD 

 NO OUTPUT CONTROL FOR STRESS PERIOD    3   TIME STEP   82
 SOLVING FOR ZETA FOR LAYER     1 ZONE     2

    4472 UPPER PART EQS.      4468 LOWER PART EQS.    BAND WIDTH + 1 =   90
 STRESS PERIOD=  3 TIMESTEP= 82 LAYER=  1 ZONE=  2 ACTIVE CELLS= 8940 NUMBER OF EQUATIONS=    8940
 
 SOLVING FOR HEAD 

 NO OUTPUT CONTROL FOR STRESS PERIOD    3   TIME STEP   83
 SOLVING FOR ZETA FOR LAYER     1 ZONE     2

    4455 UPPER PART EQS.      4452 LOWER PART EQS.    BAND WIDTH + 1 =   89
 STRESS PERIOD=  3 TIMESTEP= 83 LAYER=  1 ZONE=  2 ACTIVE CELLS= 8907 NUMBER OF EQUATIONS=    8907
 
 SOLVING FOR HEAD 

 NO OUTPUT CONTROL FOR STRESS PERIOD    3   TIME STEP   84
 SOLVING FOR ZETA FOR LAYER     1 ZONE     2

    4464 UPPER PART EQS.      4463 LOWER PART EQS.    BAND WIDTH + 1 =   90
 STRESS PERIOD=  3 TIMESTEP= 84 LAYER=  1 ZONE=  2 ACTIVE CELLS= 8927 NUMBER OF EQUATIONS=    8927
 
 SOLVING FOR HEAD 

 NO OUTPUT CONTROL FOR STRESS PERIOD    3   TIME STEP   85
 SOLVING FOR ZETA FOR LAYER     1 ZONE     2

    4457 UPPER PART EQS.      4448 LOWER PART EQS.    BAND WIDTH + 1 =   90
 STRESS PERIOD=  3 TIMESTEP= 85 LAYER=  1 ZONE=  2 ACTIVE CELLS= 8905 NUMBER OF EQUATIONS=    8905
 
 SOLVING FOR HEAD 

 NO OUTPUT CONTROL FOR STRESS PERIOD    3   TIME STEP   86
 SOLVING FOR ZETA FOR LAYER     1 ZONE     2

    4470 UPPER PART EQS.      4464 LOWER PART EQS.    BAND WIDTH + 1 =   91
 STRESS PERIOD=  3 TIMESTEP= 86 LAYER=  1 ZONE=  2 ACTIVE CELLS= 8934 NUMBER OF EQUATIONS=    8934
 
 SOLVING FOR HEAD 

 NO OUTPUT CONTROL FOR STRESS PERIOD    3   TIME STEP   87
 SOLVING FOR ZETA FOR LAYER     1 ZONE     2

    4453 UPPER PART EQS.      4447 LOWER PART EQS.    BAND WIDTH + 1 =   90
 STRESS PERIOD=  3 TIMESTEP= 87 LAYER=  1 ZONE=  2 ACTIVE CELLS= 8900 NUMBER OF EQUATIONS=    8900
 
 SOLVING FOR HEAD 

 NO OUTPUT CONTROL FOR STRESS PERIOD    3   TIME STEP   88
 SOLVING FOR ZETA FOR LAYER     1 ZONE     2

    4469 UPPER PART EQS.      4463 LOWER PART EQS.    BAND WIDTH + 1 =   93
 STRESS PERIOD=  3 TIMESTEP= 88 LAYER=  1 ZONE=  2 ACTIVE CELLS= 8932 NUMBER OF EQUATIONS=    8932
 
 SOLVING FOR HEAD 

 NO OUTPUT CONTROL FOR STRESS PERIOD    3   TIME STEP   89
 SOLVING FOR ZETA FOR LAYER     1 ZONE     2

    4460 UPPER PART EQS.      4449 LOWER PART EQS.    BAND WIDTH + 1 =   90
 STRESS PERIOD=  3 TIMESTEP= 89 LAYER=  1 ZONE=  2 ACTIVE CELLS= 8909 NUMBER OF EQUATIONS=    8909
 
 SOLVING FOR HEAD 

 NO OUTPUT CONTROL FOR STRESS PERIOD    3   TIME STEP   90
 SOLVING FOR ZETA FOR LAYER     1 ZONE     2

    4465 UPPER PART EQS.      4467 LOWER PART EQS.    BAND WIDTH + 1 =   92
 STRESS PERIOD=  3 TIMESTEP= 90 LAYER=  1 ZONE=  2 ACTIVE CELLS= 8932 NUMBER OF EQUATIONS=    8932
 
 SOLVING FOR HEAD 

 NO OUTPUT CONTROL FOR STRESS PERIOD    3   TIME STEP   91
 SOLVING FOR ZETA FOR LAYER     1 ZONE     2

    4459 UPPER PART EQS.      4453 LOWER PART EQS.    BAND WIDTH + 1 =   91
 STRESS PERIOD=  3 TIMESTEP= 91 LAYER=  1 ZONE=  2 ACTIVE CELLS= 8912 NUMBER OF EQUATIONS=    8912
 
 SOLVING FOR HEAD 

 NO OUTPUT CONTROL FOR STRESS PERIOD    3   TIME STEP   92
 SOLVING FOR ZETA FOR LAYER     1 ZONE     2

    4468 UPPER PART EQS.      4465 LOWER PART EQS.    BAND WIDTH + 1 =   91
 STRESS PERIOD=  3 TIMESTEP= 92 LAYER=  1 ZONE=  2 ACTIVE CELLS= 8933 NUMBER OF EQUATIONS=    8933
 
 SOLVING FOR HEAD 

 NO OUTPUT CONTROL FOR STRESS PERIOD    3   TIME STEP   93
 SOLVING FOR ZETA FOR LAYER     1 ZONE     2

    4454 UPPER PART EQS.      4452 LOWER PART EQS.    BAND WIDTH + 1 =   90
 STRESS PERIOD=  3 TIMESTEP= 93 LAYER=  1 ZONE=  2 ACTIVE CELLS= 8906 NUMBER OF EQUATIONS=    8906
 
 SOLVING FOR HEAD 

 NO OUTPUT CONTROL FOR STRESS PERIOD    3   TIME STEP   94
 SOLVING FOR ZETA FOR LAYER     1 ZONE     2

    4471 UPPER PART EQS.      4462 LOWER PART EQS.    BAND WIDTH + 1 =   93
 STRESS PERIOD=  3 TIMESTEP= 94 LAYER=  1 ZONE=  2 ACTIVE CELLS= 8933 NUMBER OF EQUATIONS=    8933
 
 SOLVING FOR HEAD 

 NO OUTPUT CONTROL FOR STRESS PERIOD    3   TIME STEP   95
 SOLVING FOR ZETA FOR LAYER     1 ZONE     2

    4458 UPPER PART EQS.      4453 LOWER PART EQS.    BAND WIDTH + 1 =   90
 STRESS PERIOD=  3 TIMESTEP= 95 LAYER=  1 ZONE=  2 ACTIVE CELLS= 8911 NUMBER OF EQUATIONS=    8911
 
 SOLVING FOR HEAD 

 NO OUTPUT CONTROL FOR STRESS PERIOD    3   TIME STEP   96
 SOLVING FOR ZETA FOR LAYER     1 ZONE     2

    4465 UPPER PART EQS.      4460 LOWER PART EQS.    BAND WIDTH + 1 =   91
 STRESS PERIOD=  3 TIMESTEP= 96 LAYER=  1 ZONE=  2 ACTIVE CELLS= 8925 NUMBER OF EQUATIONS=    8925
 
 SOLVING FOR HEAD 

 NO OUTPUT CONTROL FOR STRESS PERIOD    3   TIME STEP   97
 SOLVING FOR ZETA FOR LAYER     1 ZONE     2

    4464 UPPER PART EQS.      4448 LOWER PART EQS.    BAND WIDTH + 1 =   89
 STRESS PERIOD=  3 TIMESTEP= 97 LAYER=  1 ZONE=  2 ACTIVE CELLS= 8912 NUMBER OF EQUATIONS=    8912
 
 SOLVING FOR HEAD 

 NO OUTPUT CONTROL FOR STRESS PERIOD    3   TIME STEP   98
 SOLVING FOR ZETA FOR LAYER     1 ZONE     2

    4465 UPPER PART EQS.      4468 LOWER PART EQS.    BAND WIDTH + 1 =   92
 STRESS PERIOD=  3 TIMESTEP= 98 LAYER=  1 ZONE=  2 ACTIVE CELLS= 8933 NUMBER OF EQUATIONS=    8933
 
 SOLVING FOR HEAD 

 NO OUTPUT CONTROL FOR STRESS PERIOD    3   TIME STEP   99
 SOLVING FOR ZETA FOR LAYER     1 ZONE     2

    4459 UPPER PART EQS.      4455 LOWER PART EQS.    BAND WIDTH + 1 =   90
 STRESS PERIOD=  3 TIMESTEP= 99 LAYER=  1 ZONE=  2 ACTIVE CELLS= 8914 NUMBER OF EQUATIONS=    8914
 
 SOLVING FOR HEAD 

 NO OUTPUT CONTROL FOR STRESS PERIOD    3   TIME STEP  100
 SOLVING FOR ZETA FOR LAYER     1 ZONE     2

    4467 UPPER PART EQS.      4464 LOWER PART EQS.    BAND WIDTH + 1 =   90
 STRESS PERIOD=  3 TIMESTEP=100 LAYER=  1 ZONE=  2 ACTIVE CELLS= 8931 NUMBER OF EQUATIONS=    8931
 
 SOLVING FOR HEAD 

 NO OUTPUT CONTROL FOR STRESS PERIOD    3   TIME STEP  101
 SOLVING FOR ZETA FOR LAYER     1 ZONE     2

    4462 UPPER PART EQS.      4449 LOWER PART EQS.    BAND WIDTH + 1 =   90
 STRESS PERIOD=  3 TIMESTEP=101 LAYER=  1 ZONE=  2 ACTIVE CELLS= 8911 NUMBER OF EQUATIONS=    8911
 
 SOLVING FOR HEAD 

 NO OUTPUT CONTROL FOR STRESS PERIOD    3   TIME STEP  102
 SOLVING FOR ZETA FOR LAYER     1 ZONE     2

    4469 UPPER PART EQS.      4465 LOWER PART EQS.    BAND WIDTH + 1 =   91
 STRESS PERIOD=  3 TIMESTEP=102 LAYER=  1 ZONE=  2 ACTIVE CELLS= 8934 NUMBER OF EQUATIONS=    8934
 
 SOLVING FOR HEAD 

 NO OUTPUT CONTROL FOR STRESS PERIOD    3   TIME STEP  103
 SOLVING FOR ZETA FOR LAYER     1 ZONE     2

    4463 UPPER PART EQS.      4452 LOWER PART EQS.    BAND WIDTH + 1 =   89
 STRESS PERIOD=  3 TIMESTEP=103 LAYER=  1 ZONE=  2 ACTIVE CELLS= 8915 NUMBER OF EQUATIONS=    8915
 
 SOLVING FOR HEAD 

 NO OUTPUT CONTROL FOR STRESS PERIOD    3   TIME STEP  104
 SOLVING FOR ZETA FOR LAYER     1 ZONE     2

    4468 UPPER PART EQS.      4463 LOWER PART EQS.    BAND WIDTH + 1 =   90
 STRESS PERIOD=  3 TIMESTEP=104 LAYER=  1 ZONE=  2 ACTIVE CELLS= 8931 NUMBER OF EQUATIONS=    8931
 
 SOLVING FOR HEAD 

 NO OUTPUT CONTROL FOR STRESS PERIOD    3   TIME STEP  105
 SOLVING FOR ZETA FOR LAYER     1 ZONE     2

    4462 UPPER PART EQS.      4453 LOWER PART EQS.    BAND WIDTH + 1 =   89
 STRESS PERIOD=  3 TIMESTEP=105 LAYER=  1 ZONE=  2 ACTIVE CELLS= 8915 NUMBER OF EQUATIONS=    8915
 
 SOLVING FOR HEAD 

 NO OUTPUT CONTROL FOR STRESS PERIOD    3   TIME STEP  106
 SOLVING FOR ZETA FOR LAYER     1 ZONE     2

    4470 UPPER PART EQS.      4468 LOWER PART EQS.    BAND WIDTH + 1 =   91
 STRESS PERIOD=  3 TIMESTEP=106 LAYER=  1 ZONE=  2 ACTIVE CELLS= 8938 NUMBER OF EQUATIONS=    8938
 
 SOLVING FOR HEAD 

 NO OUTPUT CONTROL FOR STRESS PERIOD    3   TIME STEP  107
 SOLVING FOR ZETA FOR LAYER     1 ZONE     2

    4460 UPPER PART EQS.      4453 LOWER PART EQS.    BAND WIDTH + 1 =   90
 STRESS PERIOD=  3 TIMESTEP=107 LAYER=  1 ZONE=  2 ACTIVE CELLS= 8913 NUMBER OF EQUATIONS=    8913
 
 SOLVING FOR HEAD 

 NO OUTPUT CONTROL FOR STRESS PERIOD    3   TIME STEP  108
 SOLVING FOR ZETA FOR LAYER     1 ZONE     2

    4465 UPPER PART EQS.      4468 LOWER PART EQS.    BAND WIDTH + 1 =   90
 STRESS PERIOD=  3 TIMESTEP=108 LAYER=  1 ZONE=  2 ACTIVE CELLS= 8933 NUMBER OF EQUATIONS=    8933
 
 SOLVING FOR HEAD 

 NO OUTPUT CONTROL FOR STRESS PERIOD    3   TIME STEP  109
 SOLVING FOR ZETA FOR LAYER     1 ZONE     2

    4462 UPPER PART EQS.      4458 LOWER PART EQS.    BAND WIDTH + 1 =   89
 STRESS PERIOD=  3 TIMESTEP=109 LAYER=  1 ZONE=  2 ACTIVE CELLS= 8920 NUMBER OF EQUATIONS=    8920
 
 SOLVING FOR HEAD 

 NO OUTPUT CONTROL FOR STRESS PERIOD    3   TIME STEP  110
 SOLVING FOR ZETA FOR LAYER     1 ZONE     2

    4470 UPPER PART EQS.      4467 LOWER PART EQS.    BAND WIDTH + 1 =   90
 STRESS PERIOD=  3 TIMESTEP=110 LAYER=  1 ZONE=  2 ACTIVE CELLS= 8937 NUMBER OF EQUATIONS=    8937
 
 SOLVING FOR HEAD 

 NO OUTPUT CONTROL FOR STRESS PERIOD    3   TIME STEP  111
 SOLVING FOR ZETA FOR LAYER     1 ZONE     2

    4462 UPPER PART EQS.      4448 LOWER PART EQS.    BAND WIDTH + 1 =   89
 STRESS PERIOD=  3 TIMESTEP=111 LAYER=  1 ZONE=  2 ACTIVE CELLS= 8910 NUMBER OF EQUATIONS=    8910
 
 SOLVING FOR HEAD 

 NO OUTPUT CONTROL FOR STRESS PERIOD    3   TIME STEP  112
 SOLVING FOR ZETA FOR LAYER     1 ZONE     2

    4470 UPPER PART EQS.      4469 LOWER PART EQS.    BAND WIDTH + 1 =   89
 STRESS PERIOD=  3 TIMESTEP=112 LAYER=  1 ZONE=  2 ACTIVE CELLS= 8939 NUMBER OF EQUATIONS=    8939
 
 SOLVING FOR HEAD 

 NO OUTPUT CONTROL FOR STRESS PERIOD    3   TIME STEP  113
 SOLVING FOR ZETA FOR LAYER     1 ZONE     2

    4461 UPPER PART EQS.      4455 LOWER PART EQS.    BAND WIDTH + 1 =   89
 STRESS PERIOD=  3 TIMESTEP=113 LAYER=  1 ZONE=  2 ACTIVE CELLS= 8916 NUMBER OF EQUATIONS=    8916
 
 SOLVING FOR HEAD 

 NO OUTPUT CONTROL FOR STRESS PERIOD    3   TIME STEP  114
 SOLVING FOR ZETA FOR LAYER     1 ZONE     2

    4464 UPPER PART EQS.      4468 LOWER PART EQS.    BAND WIDTH + 1 =   90
 STRESS PERIOD=  3 TIMESTEP=114 LAYER=  1 ZONE=  2 ACTIVE CELLS= 8932 NUMBER OF EQUATIONS=    8932
 
 SOLVING FOR HEAD 

 NO OUTPUT CONTROL FOR STRESS PERIOD    3   TIME STEP  115
 SOLVING FOR ZETA FOR LAYER     1 ZONE     2

    4464 UPPER PART EQS.      4455 LOWER PART EQS.    BAND WIDTH + 1 =   90
 STRESS PERIOD=  3 TIMESTEP=115 LAYER=  1 ZONE=  2 ACTIVE CELLS= 8919 NUMBER OF EQUATIONS=    8919
 
 SOLVING FOR HEAD 

 NO OUTPUT CONTROL FOR STRESS PERIOD    3   TIME STEP  116
 SOLVING FOR ZETA FOR LAYER     1 ZONE     2

    4471 UPPER PART EQS.      4469 LOWER PART EQS.    BAND WIDTH + 1 =   90
 STRESS PERIOD=  3 TIMESTEP=116 LAYER=  1 ZONE=  2 ACTIVE CELLS= 8940 NUMBER OF EQUATIONS=    8940
 
 SOLVING FOR HEAD 

 NO OUTPUT CONTROL FOR STRESS PERIOD    3   TIME STEP  117
 SOLVING FOR ZETA FOR LAYER     1 ZONE     2

    4461 UPPER PART EQS.      4456 LOWER PART EQS.    BAND WIDTH + 1 =   90
 STRESS PERIOD=  3 TIMESTEP=117 LAYER=  1 ZONE=  2 ACTIVE CELLS= 8917 NUMBER OF EQUATIONS=    8917
 
 SOLVING FOR HEAD 

 NO OUTPUT CONTROL FOR STRESS PERIOD    3   TIME STEP  118
 SOLVING FOR ZETA FOR LAYER     1 ZONE     2

    4472 UPPER PART EQS.      4467 LOWER PART EQS.    BAND WIDTH + 1 =   90
 STRESS PERIOD=  3 TIMESTEP=118 LAYER=  1 ZONE=  2 ACTIVE CELLS= 8939 NUMBER OF EQUATIONS=    8939
 
 SOLVING FOR HEAD 

 NO OUTPUT CONTROL FOR STRESS PERIOD    3   TIME STEP  119
 SOLVING FOR ZETA FOR LAYER     1 ZONE     2

    4463 UPPER PART EQS.      4453 LOWER PART EQS.    BAND WIDTH + 1 =   89
 STRESS PERIOD=  3 TIMESTEP=119 LAYER=  1 ZONE=  2 ACTIVE CELLS= 8916 NUMBER OF EQUATIONS=    8916
 
 SOLVING FOR HEAD 

 OUTPUT CONTROL FOR STRESS PERIOD    3   TIME STEP  120
    PRINT BUDGET
    SAVE HEAD FOR ALL LAYERS
 SOLVING FOR ZETA FOR LAYER     1 ZONE     2

    4468 UPPER PART EQS.      4470 LOWER PART EQS.    BAND WIDTH + 1 =   90
 STRESS PERIOD=  3 TIMESTEP=120 LAYER=  1 ZONE=  2 ACTIVE CELLS= 8938 NUMBER OF EQUATIONS=    8938
 UBUDSV SAVING "      ZETASRF  1" ON UNIT 55 AT TIME STEP120, STRESS PERIOD    3


                      VOLUMETRIC SWI ZONE BUDGET FOR ENTIRE MODEL
                     AT END OF TIME STEP  120 IN STRESS PERIOD   3
                                      ZONE     1
  -----------------------------------------------------------------------------------

        CUMULATIVE VOLUMES      L**3       RATES FOR THIS TIME STEP      L**3/T
        ------------------                 ------------------------

              IN:                                      IN:
              ---                                      ---
             BOUNDARIES = 49737916416.0000            BOUNDARIES =      607926.9375
          CONSTANT HEAD =           0.0000         CONSTANT HEAD =           0.0000
            ZONE CHANGE =  4378437632.0000           ZONE CHANGE =        4376.8384
       ZONE CHG TIP/TOE =    75501448.0000      ZONE CHG TIP/TOE =        1206.5262
            ZONE MIXING =           0.0000           ZONE MIXING =           0.0000

               TOTAL IN = 54191853568.0000              TOTAL IN =      613510.2500

             OUT:                                     OUT:
             ----                                     ----
             BOUNDARIES = 39190417408.0000            BOUNDARIES =      549617.8750
          CONSTANT HEAD =           0.0000         CONSTANT HEAD =           0.0000
            ZONE CHANGE = 15476557824.0000           ZONE CHANGE =       65554.6172
       ZONE CHG TIP/TOE =    53370364.0000      ZONE CHG TIP/TOE =         894.3856
            ZONE MIXING =           0.0000           ZONE MIXING =           0.0000

              TOTAL OUT = 54720348160.0000             TOTAL OUT =      616066.8750

               IN - OUT =  -528494592.0000              IN - OUT =       -2556.6250

    PERCENT DISCREPANCY =          -0.97     PERCENT DISCREPANCY =          -0.42



                      VOLUMETRIC SWI ZONE BUDGET FOR ENTIRE MODEL
                     AT END OF TIME STEP  120 IN STRESS PERIOD   3
                                      ZONE     2
  -----------------------------------------------------------------------------------

        CUMULATIVE VOLUMES      L**3       RATES FOR THIS TIME STEP      L**3/T
        ------------------                 ------------------------

              IN:                                      IN:
              ---                                      ---
             BOUNDARIES =   199303440.0000            BOUNDARIES =        2052.6516
          CONSTANT HEAD =           0.0000         CONSTANT HEAD =           0.0000
            ZONE CHANGE = 15476557824.0000           ZONE CHANGE =       65554.6172
       ZONE CHG TIP/TOE =   629851520.0000      ZONE CHG TIP/TOE =        3748.0071
            ZONE MIXING =           0.0000           ZONE MIXING =           0.0000

               TOTAL IN = 16305712128.0000              TOTAL IN =       71355.2734

             OUT:                                     OUT:
             ----                                     ----
             BOUNDARIES = 10747048960.0000            BOUNDARIES =       60361.6797
          CONSTANT HEAD =           0.0000         CONSTANT HEAD =           0.0000
            ZONE CHANGE =  4954924544.0000           ZONE CHANGE =        7230.4600
       ZONE CHG TIP/TOE =    75501448.0000      ZONE CHG TIP/TOE =        1206.5262
            ZONE MIXING =           0.0000           ZONE MIXING =           0.0000

              TOTAL OUT = 15777474560.0000             TOTAL OUT =       68798.6641

               IN - OUT =   528237568.0000              IN - OUT =        2556.6094

    PERCENT DISCREPANCY =           3.29     PERCENT DISCREPANCY =           3.65


 HEAD WILL BE SAVED ON UNIT   51 AT END OF TIME STEP  120, STRESS PERIOD    3
1
  VOLUMETRIC BUDGET FOR ENTIRE MODEL AT END OF TIME STEP  120, STRESS PERIOD   3
  ------------------------------------------------------------------------------

     CUMULATIVE VOLUMES      L**3       RATES FOR THIS TIME STEP      L**3/T
     ------------------                 ------------------------

           IN:                                      IN:
           ---                                      ---
             STORAGE =           0.0000               STORAGE =           0.0000
       CONSTANT HEAD =           0.0000         CONSTANT HEAD =           0.0000
          SWIADDTOCH =           0.0000            SWIADDTOCH =           0.0000
     HEAD DEP BOUNDS =           0.0000       HEAD DEP BOUNDS =           0.0000
            RECHARGE = 55190867968.0000              RECHARGE =      674575.3125

            TOTAL IN = 55190867968.0000              TOTAL IN =      674575.3125

          OUT:                                     OUT:
          ----                                     ----
             STORAGE =           0.0000               STORAGE =           0.0000
       CONSTANT HEAD =           0.0000         CONSTANT HEAD =           0.0000
          SWIADDTOCH =           0.0000            SWIADDTOCH =           0.0000
     HEAD DEP BOUNDS = 54949605376.0000       HEAD DEP BOUNDS =      671630.5625
            RECHARGE =   240928496.0000              RECHARGE =        2944.7622

           TOTAL OUT = 55190532096.0000             TOTAL OUT =      674575.3125

            IN - OUT =      335872.0000              IN - OUT =           0.0000

 PERCENT DISCREPANCY =           0.00     PERCENT DISCREPANCY =           0.00






         TIME SUMMARY AT END OF TIME STEP  120 IN STRESS PERIOD    3
                    SECONDS     MINUTES      HOURS       DAYS        YEARS
                    -----------------------------------------------------------
   TIME STEP LENGTH 3.15576E+06  52596.      876.60      36.525     0.10000    
 STRESS PERIOD TIME 3.78691E+08 6.31151E+06 1.05192E+05  4383.0      12.000    
         TOTAL TIME 7.06888E+09 1.17815E+08 1.96358E+06  81816.      224.00    
1
 
 SOLVING FOR HEAD 

 NO OUTPUT CONTROL FOR STRESS PERIOD    3   TIME STEP  121
 SOLVING FOR ZETA FOR LAYER     1 ZONE     2

    4463 UPPER PART EQS.      4455 LOWER PART EQS.    BAND WIDTH + 1 =   89
 STRESS PERIOD=  3 TIMESTEP=121 LAYER=  1 ZONE=  2 ACTIVE CELLS= 8918 NUMBER OF EQUATIONS=    8918
 
 SOLVING FOR HEAD 

 NO OUTPUT CONTROL FOR STRESS PERIOD    3   TIME STEP  122
 SOLVING FOR ZETA FOR LAYER     1 ZONE     2

    4470 UPPER PART EQS.      4467 LOWER PART EQS.    BAND WIDTH + 1 =   89
 STRESS PERIOD=  3 TIMESTEP=122 LAYER=  1 ZONE=  2 ACTIVE CELLS= 8937 NUMBER OF EQUATIONS=    8937
 
 SOLVING FOR HEAD 

 NO OUTPUT CONTROL FOR STRESS PERIOD    3   TIME STEP  123
 SOLVING FOR ZETA FOR LAYER     1 ZONE     2

    4462 UPPER PART EQS.      4458 LOWER PART EQS.    BAND WIDTH + 1 =   89
 STRESS PERIOD=  3 TIMESTEP=123 LAYER=  1 ZONE=  2 ACTIVE CELLS= 8920 NUMBER OF EQUATIONS=    8920
 
 SOLVING FOR HEAD 

 NO OUTPUT CONTROL FOR STRESS PERIOD    3   TIME STEP  124
 SOLVING FOR ZETA FOR LAYER     1 ZONE     2

    4470 UPPER PART EQS.      4469 LOWER PART EQS.    BAND WIDTH + 1 =   91
 STRESS PERIOD=  3 TIMESTEP=124 LAYER=  1 ZONE=  2 ACTIVE CELLS= 8939 NUMBER OF EQUATIONS=    8939
 
 SOLVING FOR HEAD 

 NO OUTPUT CONTROL FOR STRESS PERIOD    3   TIME STEP  125
 SOLVING FOR ZETA FOR LAYER     1 ZONE     2

    4466 UPPER PART EQS.      4456 LOWER PART EQS.    BAND WIDTH + 1 =   90
 STRESS PERIOD=  3 TIMESTEP=125 LAYER=  1 ZONE=  2 ACTIVE CELLS= 8922 NUMBER OF EQUATIONS=    8922
 
 SOLVING FOR HEAD 

 NO OUTPUT CONTROL FOR STRESS PERIOD    3   TIME STEP  126
 SOLVING FOR ZETA FOR LAYER     1 ZONE     2

    4464 UPPER PART EQS.      4468 LOWER PART EQS.    BAND WIDTH + 1 =   90
 STRESS PERIOD=  3 TIMESTEP=126 LAYER=  1 ZONE=  2 ACTIVE CELLS= 8932 NUMBER OF EQUATIONS=    8932
 
 SOLVING FOR HEAD 

 NO OUTPUT CONTROL FOR STRESS PERIOD    3   TIME STEP  127
 SOLVING FOR ZETA FOR LAYER     1 ZONE     2

    4467 UPPER PART EQS.      4453 LOWER PART EQS.    BAND WIDTH + 1 =   90
 STRESS PERIOD=  3 TIMESTEP=127 LAYER=  1 ZONE=  2 ACTIVE CELLS= 8920 NUMBER OF EQUATIONS=    8920
 
 SOLVING FOR HEAD 

 NO OUTPUT CONTROL FOR STRESS PERIOD    3   TIME STEP  128
 SOLVING FOR ZETA FOR LAYER     1 ZONE     2

    4471 UPPER PART EQS.      4471 LOWER PART EQS.    BAND WIDTH + 1 =   90
 STRESS PERIOD=  3 TIMESTEP=128 LAYER=  1 ZONE=  2 ACTIVE CELLS= 8942 NUMBER OF EQUATIONS=    8942
 
 SOLVING FOR HEAD 

 NO OUTPUT CONTROL FOR STRESS PERIOD    3   TIME STEP  129
 SOLVING FOR ZETA FOR LAYER     1 ZONE     2

    4465 UPPER PART EQS.      4458 LOWER PART EQS.    BAND WIDTH + 1 =   89
 STRESS PERIOD=  3 TIMESTEP=129 LAYER=  1 ZONE=  2 ACTIVE CELLS= 8923 NUMBER OF EQUATIONS=    8923
 
 SOLVING FOR HEAD 

 NO OUTPUT CONTROL FOR STRESS PERIOD    3   TIME STEP  130
 SOLVING FOR ZETA FOR LAYER     1 ZONE     2

    4469 UPPER PART EQS.      4469 LOWER PART EQS.    BAND WIDTH + 1 =   89
 STRESS PERIOD=  3 TIMESTEP=130 LAYER=  1 ZONE=  2 ACTIVE CELLS= 8938 NUMBER OF EQUATIONS=    8938
 
 SOLVING FOR HEAD 

 NO OUTPUT CONTROL FOR STRESS PERIOD    3   TIME STEP  131
 SOLVING FOR ZETA FOR LAYER     1 ZONE     2

    4467 UPPER PART EQS.      4455 LOWER PART EQS.    BAND WIDTH + 1 =   89
 STRESS PERIOD=  3 TIMESTEP=131 LAYER=  1 ZONE=  2 ACTIVE CELLS= 8922 NUMBER OF EQUATIONS=    8922
 
 SOLVING FOR HEAD 

 NO OUTPUT CONTROL FOR STRESS PERIOD    3   TIME STEP  132
 SOLVING FOR ZETA FOR LAYER     1 ZONE     2

    4462 UPPER PART EQS.      4467 LOWER PART EQS.    BAND WIDTH + 1 =   90
 STRESS PERIOD=  3 TIMESTEP=132 LAYER=  1 ZONE=  2 ACTIVE CELLS= 8929 NUMBER OF EQUATIONS=    8929
 
 SOLVING FOR HEAD 

 NO OUTPUT CONTROL FOR STRESS PERIOD    3   TIME STEP  133
 SOLVING FOR ZETA FOR LAYER     1 ZONE     2

    4467 UPPER PART EQS.      4457 LOWER PART EQS.    BAND WIDTH + 1 =   89
 STRESS PERIOD=  3 TIMESTEP=133 LAYER=  1 ZONE=  2 ACTIVE CELLS= 8924 NUMBER OF EQUATIONS=    8924
 
 SOLVING FOR HEAD 

 NO OUTPUT CONTROL FOR STRESS PERIOD    3   TIME STEP  134
 SOLVING FOR ZETA FOR LAYER     1 ZONE     2

    4469 UPPER PART EQS.      4471 LOWER PART EQS.    BAND WIDTH + 1 =   89
 STRESS PERIOD=  3 TIMESTEP=134 LAYER=  1 ZONE=  2 ACTIVE CELLS= 8940 NUMBER OF EQUATIONS=    8940
 
 SOLVING FOR HEAD 

 NO OUTPUT CONTROL FOR STRESS PERIOD    3   TIME STEP  135
 SOLVING FOR ZETA FOR LAYER     1 ZONE     2

    4463 UPPER PART EQS.      4460 LOWER PART EQS.    BAND WIDTH + 1 =   89
 STRESS PERIOD=  3 TIMESTEP=135 LAYER=  1 ZONE=  2 ACTIVE CELLS= 8923 NUMBER OF EQUATIONS=    8923
 
 SOLVING FOR HEAD 

 NO OUTPUT CONTROL FOR STRESS PERIOD    3   TIME STEP  136
 SOLVING FOR ZETA FOR LAYER     1 ZONE     2

    4472 UPPER PART EQS.      4471 LOWER PART EQS.    BAND WIDTH + 1 =   90
 STRESS PERIOD=  3 TIMESTEP=136 LAYER=  1 ZONE=  2 ACTIVE CELLS= 8943 NUMBER OF EQUATIONS=    8943
 
 SOLVING FOR HEAD 

 NO OUTPUT CONTROL FOR STRESS PERIOD    3   TIME STEP  137
 SOLVING FOR ZETA FOR LAYER     1 ZONE     2

    4467 UPPER PART EQS.      4457 LOWER PART EQS.    BAND WIDTH + 1 =   89
 STRESS PERIOD=  3 TIMESTEP=137 LAYER=  1 ZONE=  2 ACTIVE CELLS= 8924 NUMBER OF EQUATIONS=    8924
 
 SOLVING FOR HEAD 

 NO OUTPUT CONTROL FOR STRESS PERIOD    3   TIME STEP  138
 SOLVING FOR ZETA FOR LAYER     1 ZONE     2

    4462 UPPER PART EQS.      4468 LOWER PART EQS.    BAND WIDTH + 1 =   90
 STRESS PERIOD=  3 TIMESTEP=138 LAYER=  1 ZONE=  2 ACTIVE CELLS= 8930 NUMBER OF EQUATIONS=    8930
 
 SOLVING FOR HEAD 

 NO OUTPUT CONTROL FOR STRESS PERIOD    3   TIME STEP  139
 SOLVING FOR ZETA FOR LAYER     1 ZONE     2

    4470 UPPER PART EQS.      4454 LOWER PART EQS.    BAND WIDTH + 1 =   89
 STRESS PERIOD=  3 TIMESTEP=139 LAYER=  1 ZONE=  2 ACTIVE CELLS= 8924 NUMBER OF EQUATIONS=    8924
 
 SOLVING FOR HEAD 

 NO OUTPUT CONTROL FOR STRESS PERIOD    3   TIME STEP  140
 SOLVING FOR ZETA FOR LAYER     1 ZONE     2

    4476 UPPER PART EQS.      4471 LOWER PART EQS.    BAND WIDTH + 1 =   90
 STRESS PERIOD=  3 TIMESTEP=140 LAYER=  1 ZONE=  2 ACTIVE CELLS= 8947 NUMBER OF EQUATIONS=    8947
 
 SOLVING FOR HEAD 

 NO OUTPUT CONTROL FOR STRESS PERIOD    3   TIME STEP  141
 SOLVING FOR ZETA FOR LAYER     1 ZONE     2

    4457 UPPER PART EQS.      4456 LOWER PART EQS.    BAND WIDTH + 1 =   89
 STRESS PERIOD=  3 TIMESTEP=141 LAYER=  1 ZONE=  2 ACTIVE CELLS= 8913 NUMBER OF EQUATIONS=    8913
 
 SOLVING FOR HEAD 

 NO OUTPUT CONTROL FOR STRESS PERIOD    3   TIME STEP  142
 SOLVING FOR ZETA FOR LAYER     1 ZONE     2

    4475 UPPER PART EQS.      4473 LOWER PART EQS.    BAND WIDTH + 1 =   90
 STRESS PERIOD=  3 TIMESTEP=142 LAYER=  1 ZONE=  2 ACTIVE CELLS= 8948 NUMBER OF EQUATIONS=    8948
 
 SOLVING FOR HEAD 

 NO OUTPUT CONTROL FOR STRESS PERIOD    3   TIME STEP  143
 SOLVING FOR ZETA FOR LAYER     1 ZONE     2

    4465 UPPER PART EQS.      4460 LOWER PART EQS.    BAND WIDTH + 1 =   89
 STRESS PERIOD=  3 TIMESTEP=143 LAYER=  1 ZONE=  2 ACTIVE CELLS= 8925 NUMBER OF EQUATIONS=    8925
 
 SOLVING FOR HEAD 

 NO OUTPUT CONTROL FOR STRESS PERIOD    3   TIME STEP  144
 SOLVING FOR ZETA FOR LAYER     1 ZONE     2

    4469 UPPER PART EQS.      4476 LOWER PART EQS.    BAND WIDTH + 1 =   90
 STRESS PERIOD=  3 TIMESTEP=144 LAYER=  1 ZONE=  2 ACTIVE CELLS= 8945 NUMBER OF EQUATIONS=    8945
 
 SOLVING FOR HEAD 

 NO OUTPUT CONTROL FOR STRESS PERIOD    3   TIME STEP  145
 SOLVING FOR ZETA FOR LAYER     1 ZONE     2

    4470 UPPER PART EQS.      4457 LOWER PART EQS.    BAND WIDTH + 1 =   89
 STRESS PERIOD=  3 TIMESTEP=145 LAYER=  1 ZONE=  2 ACTIVE CELLS= 8927 NUMBER OF EQUATIONS=    8927
 
 SOLVING FOR HEAD 

 NO OUTPUT CONTROL FOR STRESS PERIOD    3   TIME STEP  146
 SOLVING FOR ZETA FOR LAYER     1 ZONE     2

    4475 UPPER PART EQS.      4473 LOWER PART EQS.    BAND WIDTH + 1 =   90
 STRESS PERIOD=  3 TIMESTEP=146 LAYER=  1 ZONE=  2 ACTIVE CELLS= 8948 NUMBER OF EQUATIONS=    8948
 
 SOLVING FOR HEAD 

 NO OUTPUT CONTROL FOR STRESS PERIOD    3   TIME STEP  147
 SOLVING FOR ZETA FOR LAYER     1 ZONE     2

    4465 UPPER PART EQS.      4458 LOWER PART EQS.    BAND WIDTH + 1 =   89
 STRESS PERIOD=  3 TIMESTEP=147 LAYER=  1 ZONE=  2 ACTIVE CELLS= 8923 NUMBER OF EQUATIONS=    8923
 
 SOLVING FOR HEAD 

 NO OUTPUT CONTROL FOR STRESS PERIOD    3   TIME STEP  148
 SOLVING FOR ZETA FOR LAYER     1 ZONE     2

    4475 UPPER PART EQS.      4470 LOWER PART EQS.    BAND WIDTH + 1 =   90
 STRESS PERIOD=  3 TIMESTEP=148 LAYER=  1 ZONE=  2 ACTIVE CELLS= 8945 NUMBER OF EQUATIONS=    8945
 
 SOLVING FOR HEAD 

 NO OUTPUT CONTROL FOR STRESS PERIOD    3   TIME STEP  149
 SOLVING FOR ZETA FOR LAYER     1 ZONE     2

    4463 UPPER PART EQS.      4461 LOWER PART EQS.    BAND WIDTH + 1 =   89
 STRESS PERIOD=  3 TIMESTEP=149 LAYER=  1 ZONE=  2 ACTIVE CELLS= 8924 NUMBER OF EQUATIONS=    8924
 
 SOLVING FOR HEAD 

 NO OUTPUT CONTROL FOR STRESS PERIOD    3   TIME STEP  150
 SOLVING FOR ZETA FOR LAYER     1 ZONE     2

    4468 UPPER PART EQS.      4472 LOWER PART EQS.    BAND WIDTH + 1 =   90
 STRESS PERIOD=  3 TIMESTEP=150 LAYER=  1 ZONE=  2 ACTIVE CELLS= 8940 NUMBER OF EQUATIONS=    8940
 
 SOLVING FOR HEAD 

 NO OUTPUT CONTROL FOR STRESS PERIOD    3   TIME STEP  151
 SOLVING FOR ZETA FOR LAYER     1 ZONE     2

    4474 UPPER PART EQS.      4455 LOWER PART EQS.    BAND WIDTH + 1 =   89
 STRESS PERIOD=  3 TIMESTEP=151 LAYER=  1 ZONE=  2 ACTIVE CELLS= 8929 NUMBER OF EQUATIONS=    8929
 
 SOLVING FOR HEAD 

 NO OUTPUT CONTROL FOR STRESS PERIOD    3   TIME STEP  152
 SOLVING FOR ZETA FOR LAYER     1 ZONE     2

    4470 UPPER PART EQS.      4475 LOWER PART EQS.    BAND WIDTH + 1 =   90
 STRESS PERIOD=  3 TIMESTEP=152 LAYER=  1 ZONE=  2 ACTIVE CELLS= 8945 NUMBER OF EQUATIONS=    8945
 
 SOLVING FOR HEAD 

 NO OUTPUT CONTROL FOR STRESS PERIOD    3   TIME STEP  153
 SOLVING FOR ZETA FOR LAYER     1 ZONE     2

    4464 UPPER PART EQS.      4463 LOWER PART EQS.    BAND WIDTH + 1 =   89
 STRESS PERIOD=  3 TIMESTEP=153 LAYER=  1 ZONE=  2 ACTIVE CELLS= 8927 NUMBER OF EQUATIONS=    8927
 
 SOLVING FOR HEAD 

 NO OUTPUT CONTROL FOR STRESS PERIOD    3   TIME STEP  154
 SOLVING FOR ZETA FOR LAYER     1 ZONE     2

    4477 UPPER PART EQS.      4469 LOWER PART EQS.    BAND WIDTH + 1 =   90
 STRESS PERIOD=  3 TIMESTEP=154 LAYER=  1 ZONE=  2 ACTIVE CELLS= 8946 NUMBER OF EQUATIONS=    8946
 
 SOLVING FOR HEAD 

 NO OUTPUT CONTROL FOR STRESS PERIOD    3   TIME STEP  155
 SOLVING FOR ZETA FOR LAYER     1 ZONE     2

    4468 UPPER PART EQS.      4460 LOWER PART EQS.    BAND WIDTH + 1 =   89
 STRESS PERIOD=  3 TIMESTEP=155 LAYER=  1 ZONE=  2 ACTIVE CELLS= 8928 NUMBER OF EQUATIONS=    8928
 
 SOLVING FOR HEAD 

 NO OUTPUT CONTROL FOR STRESS PERIOD    3   TIME STEP  156
 SOLVING FOR ZETA FOR LAYER     1 ZONE     2

    4473 UPPER PART EQS.      4471 LOWER PART EQS.    BAND WIDTH + 1 =   90
 STRESS PERIOD=  3 TIMESTEP=156 LAYER=  1 ZONE=  2 ACTIVE CELLS= 8944 NUMBER OF EQUATIONS=    8944
 
 SOLVING FOR HEAD 

 NO OUTPUT CONTROL FOR STRESS PERIOD    3   TIME STEP  157
 SOLVING FOR ZETA FOR LAYER     1 ZONE     2

    4469 UPPER PART EQS.      4457 LOWER PART EQS.    BAND WIDTH + 1 =   89
 STRESS PERIOD=  3 TIMESTEP=157 LAYER=  1 ZONE=  2 ACTIVE CELLS= 8926 NUMBER OF EQUATIONS=    8926
 
 SOLVING FOR HEAD 

 NO OUTPUT CONTROL FOR STRESS PERIOD    3   TIME STEP  158
 SOLVING FOR ZETA FOR LAYER     1 ZONE     2

    4472 UPPER PART EQS.      4473 LOWER PART EQS.    BAND WIDTH + 1 =   91
 STRESS PERIOD=  3 TIMESTEP=158 LAYER=  1 ZONE=  2 ACTIVE CELLS= 8945 NUMBER OF EQUATIONS=    8945
 
 SOLVING FOR HEAD 

 NO OUTPUT CONTROL FOR STRESS PERIOD    3   TIME STEP  159
 SOLVING FOR ZETA FOR LAYER     1 ZONE     2

    4466 UPPER PART EQS.      4462 LOWER PART EQS.    BAND WIDTH + 1 =   89
 STRESS PERIOD=  3 TIMESTEP=159 LAYER=  1 ZONE=  2 ACTIVE CELLS= 8928 NUMBER OF EQUATIONS=    8928
 
 SOLVING FOR HEAD 

 NO OUTPUT CONTROL FOR STRESS PERIOD    3   TIME STEP  160
 SOLVING FOR ZETA FOR LAYER     1 ZONE     2

    4477 UPPER PART EQS.      4472 LOWER PART EQS.    BAND WIDTH + 1 =   91
 STRESS PERIOD=  3 TIMESTEP=160 LAYER=  1 ZONE=  2 ACTIVE CELLS= 8949 NUMBER OF EQUATIONS=    8949
 
 SOLVING FOR HEAD 

 NO OUTPUT CONTROL FOR STRESS PERIOD    3   TIME STEP  161
 SOLVING FOR ZETA FOR LAYER     1 ZONE     2

    4465 UPPER PART EQS.      4455 LOWER PART EQS.    BAND WIDTH + 1 =   89
 STRESS PERIOD=  3 TIMESTEP=161 LAYER=  1 ZONE=  2 ACTIVE CELLS= 8920 NUMBER OF EQUATIONS=    8920
 
 SOLVING FOR HEAD 

 NO OUTPUT CONTROL FOR STRESS PERIOD    3   TIME STEP  162
 SOLVING FOR ZETA FOR LAYER     1 ZONE     2

    4474 UPPER PART EQS.      4476 LOWER PART EQS.    BAND WIDTH + 1 =   90
 STRESS PERIOD=  3 TIMESTEP=162 LAYER=  1 ZONE=  2 ACTIVE CELLS= 8950 NUMBER OF EQUATIONS=    8950
 
 SOLVING FOR HEAD 

 NO OUTPUT CONTROL FOR STRESS PERIOD    3   TIME STEP  163
 SOLVING FOR ZETA FOR LAYER     1 ZONE     2

    4470 UPPER PART EQS.      4461 LOWER PART EQS.    BAND WIDTH + 1 =   89
 STRESS PERIOD=  3 TIMESTEP=163 LAYER=  1 ZONE=  2 ACTIVE CELLS= 8931 NUMBER OF EQUATIONS=    8931
 
 SOLVING FOR HEAD 

 NO OUTPUT CONTROL FOR STRESS PERIOD    3   TIME STEP  164
 SOLVING FOR ZETA FOR LAYER     1 ZONE     2

    4472 UPPER PART EQS.      4475 LOWER PART EQS.    BAND WIDTH + 1 =   90
 STRESS PERIOD=  3 TIMESTEP=164 LAYER=  1 ZONE=  2 ACTIVE CELLS= 8947 NUMBER OF EQUATIONS=    8947
 
 SOLVING FOR HEAD 

 NO OUTPUT CONTROL FOR STRESS PERIOD    3   TIME STEP  165
 SOLVING FOR ZETA FOR LAYER     1 ZONE     2

    4470 UPPER PART EQS.      4464 LOWER PART EQS.    BAND WIDTH + 1 =   89
 STRESS PERIOD=  3 TIMESTEP=165 LAYER=  1 ZONE=  2 ACTIVE CELLS= 8934 NUMBER OF EQUATIONS=    8934
 
 SOLVING FOR HEAD 

 NO OUTPUT CONTROL FOR STRESS PERIOD    3   TIME STEP  166
 SOLVING FOR ZETA FOR LAYER     1 ZONE     2

    4478 UPPER PART EQS.      4470 LOWER PART EQS.    BAND WIDTH + 1 =   91
 STRESS PERIOD=  3 TIMESTEP=166 LAYER=  1 ZONE=  2 ACTIVE CELLS= 8948 NUMBER OF EQUATIONS=    8948
 
 SOLVING FOR HEAD 

 NO OUTPUT CONTROL FOR STRESS PERIOD    3   TIME STEP  167
 SOLVING FOR ZETA FOR LAYER     1 ZONE     2

    4470 UPPER PART EQS.      4462 LOWER PART EQS.    BAND WIDTH + 1 =   89
 STRESS PERIOD=  3 TIMESTEP=167 LAYER=  1 ZONE=  2 ACTIVE CELLS= 8932 NUMBER OF EQUATIONS=    8932
 
 SOLVING FOR HEAD 

 NO OUTPUT CONTROL FOR STRESS PERIOD    3   TIME STEP  168
 SOLVING FOR ZETA FOR LAYER     1 ZONE     2

    4469 UPPER PART EQS.      4476 LOWER PART EQS.    BAND WIDTH + 1 =   91
 STRESS PERIOD=  3 TIMESTEP=168 LAYER=  1 ZONE=  2 ACTIVE CELLS= 8945 NUMBER OF EQUATIONS=    8945
 
 SOLVING FOR HEAD 

 NO OUTPUT CONTROL FOR STRESS PERIOD    3   TIME STEP  169
 SOLVING FOR ZETA FOR LAYER     1 ZONE     2

    4470 UPPER PART EQS.      4463 LOWER PART EQS.    BAND WIDTH + 1 =   89
 STRESS PERIOD=  3 TIMESTEP=169 LAYER=  1 ZONE=  2 ACTIVE CELLS= 8933 NUMBER OF EQUATIONS=    8933
 
 SOLVING FOR HEAD 

 NO OUTPUT CONTROL FOR STRESS PERIOD    3   TIME STEP  170
 SOLVING FOR ZETA FOR LAYER     1 ZONE     2

    4476 UPPER PART EQS.      4474 LOWER PART EQS.    BAND WIDTH + 1 =   91
 STRESS PERIOD=  3 TIMESTEP=170 LAYER=  1 ZONE=  2 ACTIVE CELLS= 8950 NUMBER OF EQUATIONS=    8950
 
 SOLVING FOR HEAD 

 NO OUTPUT CONTROL FOR STRESS PERIOD    3   TIME STEP  171
 SOLVING FOR ZETA FOR LAYER     1 ZONE     2

    4465 UPPER PART EQS.      4463 LOWER PART EQS.    BAND WIDTH + 1 =   89
 STRESS PERIOD=  3 TIMESTEP=171 LAYER=  1 ZONE=  2 ACTIVE CELLS= 8928 NUMBER OF EQUATIONS=    8928
 
 SOLVING FOR HEAD 

 NO OUTPUT CONTROL FOR STRESS PERIOD    3   TIME STEP  172
 SOLVING FOR ZETA FOR LAYER     1 ZONE     2

    4478 UPPER PART EQS.      4472 LOWER PART EQS.    BAND WIDTH + 1 =   91
 STRESS PERIOD=  3 TIMESTEP=172 LAYER=  1 ZONE=  2 ACTIVE CELLS= 8950 NUMBER OF EQUATIONS=    8950
 
 SOLVING FOR HEAD 

 NO OUTPUT CONTROL FOR STRESS PERIOD    3   TIME STEP  173
 SOLVING FOR ZETA FOR LAYER     1 ZONE     2

    4468 UPPER PART EQS.      4461 LOWER PART EQS.    BAND WIDTH + 1 =   90
 STRESS PERIOD=  3 TIMESTEP=173 LAYER=  1 ZONE=  2 ACTIVE CELLS= 8929 NUMBER OF EQUATIONS=    8929
 
 SOLVING FOR HEAD 

 NO OUTPUT CONTROL FOR STRESS PERIOD    3   TIME STEP  174
 SOLVING FOR ZETA FOR LAYER     1 ZONE     2

    4475 UPPER PART EQS.      4475 LOWER PART EQS.    BAND WIDTH + 1 =   91
 STRESS PERIOD=  3 TIMESTEP=174 LAYER=  1 ZONE=  2 ACTIVE CELLS= 8950 NUMBER OF EQUATIONS=    8950
 
 SOLVING FOR HEAD 

 NO OUTPUT CONTROL FOR STRESS PERIOD    3   TIME STEP  175
 SOLVING FOR ZETA FOR LAYER     1 ZONE     2

    4470 UPPER PART EQS.      4469 LOWER PART EQS.    BAND WIDTH + 1 =   90
 STRESS PERIOD=  3 TIMESTEP=175 LAYER=  1 ZONE=  2 ACTIVE CELLS= 8939 NUMBER OF EQUATIONS=    8939
 
 SOLVING FOR HEAD 

 NO OUTPUT CONTROL FOR STRESS PERIOD    3   TIME STEP  176
 SOLVING FOR ZETA FOR LAYER     1 ZONE     2

    4473 UPPER PART EQS.      4476 LOWER PART EQS.    BAND WIDTH + 1 =   91
 STRESS PERIOD=  3 TIMESTEP=176 LAYER=  1 ZONE=  2 ACTIVE CELLS= 8949 NUMBER OF EQUATIONS=    8949
 
 SOLVING FOR HEAD 

 NO OUTPUT CONTROL FOR STRESS PERIOD    3   TIME STEP  177
 SOLVING FOR ZETA FOR LAYER     1 ZONE     2

    4470 UPPER PART EQS.      4463 LOWER PART EQS.    BAND WIDTH + 1 =   90
 STRESS PERIOD=  3 TIMESTEP=177 LAYER=  1 ZONE=  2 ACTIVE CELLS= 8933 NUMBER OF EQUATIONS=    8933
 
 SOLVING FOR HEAD 

 NO OUTPUT CONTROL FOR STRESS PERIOD    3   TIME STEP  178
 SOLVING FOR ZETA FOR LAYER     1 ZONE     2

    4478 UPPER PART EQS.      4472 LOWER PART EQS.    BAND WIDTH + 1 =   91
 STRESS PERIOD=  3 TIMESTEP=178 LAYER=  1 ZONE=  2 ACTIVE CELLS= 8950 NUMBER OF EQUATIONS=    8950
 
 SOLVING FOR HEAD 

 NO OUTPUT CONTROL FOR STRESS PERIOD    3   TIME STEP  179
 SOLVING FOR ZETA FOR LAYER     1 ZONE     2

    4470 UPPER PART EQS.      4463 LOWER PART EQS.    BAND WIDTH + 1 =   90
 STRESS PERIOD=  3 TIMESTEP=179 LAYER=  1 ZONE=  2 ACTIVE CELLS= 8933 NUMBER OF EQUATIONS=    8933
 
 SOLVING FOR HEAD 

 OUTPUT CONTROL FOR STRESS PERIOD    3   TIME STEP  180
    PRINT BUDGET
    SAVE HEAD FOR ALL LAYERS
 SOLVING FOR ZETA FOR LAYER     1 ZONE     2

    4474 UPPER PART EQS.      4478 LOWER PART EQS.    BAND WIDTH + 1 =   91
 STRESS PERIOD=  3 TIMESTEP=180 LAYER=  1 ZONE=  2 ACTIVE CELLS= 8952 NUMBER OF EQUATIONS=    8952
 UBUDSV SAVING "      ZETASRF  1" ON UNIT 55 AT TIME STEP180, STRESS PERIOD    3


                      VOLUMETRIC SWI ZONE BUDGET FOR ENTIRE MODEL
                     AT END OF TIME STEP  180 IN STRESS PERIOD   3
                                      ZONE     1
  -----------------------------------------------------------------------------------

        CUMULATIVE VOLUMES      L**3       RATES FOR THIS TIME STEP      L**3/T
        ------------------                 ------------------------

              IN:                                      IN:
              ---                                      ---
             BOUNDARIES = 51070181376.0000            BOUNDARIES =      607926.9375
          CONSTANT HEAD =           0.0000         CONSTANT HEAD =           0.0000
            ZONE CHANGE =  4387523584.0000           ZONE CHANGE =        4201.1626
       ZONE CHG TIP/TOE =    78250952.0000      ZONE CHG TIP/TOE =        1162.1304
            ZONE MIXING =           0.0000           ZONE MIXING =           0.0000

               TOTAL IN = 55535955968.0000              TOTAL IN =      613290.2500

             OUT:                                     OUT:
             ----                                     ----
             BOUNDARIES = 40394518528.0000            BOUNDARIES =      551647.6875
          CONSTANT HEAD =           0.0000         CONSTANT HEAD =           0.0000
            ZONE CHANGE = 15618642944.0000           ZONE CHANGE =       63138.4961
       ZONE CHG TIP/TOE =    55406616.0000      ZONE CHG TIP/TOE =         869.4957
            ZONE MIXING =           0.0000           ZONE MIXING =           0.0000

              TOTAL OUT = 56068567040.0000             TOTAL OUT =      615655.6875

               IN - OUT =  -532611072.0000              IN - OUT =       -2365.4375

    PERCENT DISCREPANCY =          -0.95     PERCENT DISCREPANCY =          -0.38



                      VOLUMETRIC SWI ZONE BUDGET FOR ENTIRE MODEL
                     AT END OF TIME STEP  180 IN STRESS PERIOD   3
                                      ZONE     2
  -----------------------------------------------------------------------------------

        CUMULATIVE VOLUMES      L**3       RATES FOR THIS TIME STEP      L**3/T
        ------------------                 ------------------------

              IN:                                      IN:
              ---                                      ---
             BOUNDARIES =   203796480.0000            BOUNDARIES =        2047.6295
          CONSTANT HEAD =           0.0000         CONSTANT HEAD =           0.0000
            ZONE CHANGE = 15618642944.0000           ZONE CHANGE =       63138.4961
       ZONE CHG TIP/TOE =   636696384.0000      ZONE CHG TIP/TOE =        3512.5686
            ZONE MIXING =           0.0000           ZONE MIXING =           0.0000

               TOTAL IN = 16459136000.0000              TOTAL IN =       68698.6953

             OUT:                                     OUT:
             ----                                     ----
             BOUNDARIES = 10879699968.0000            BOUNDARIES =       58326.8555
          CONSTANT HEAD =           0.0000         CONSTANT HEAD =           0.0000
            ZONE CHANGE =  4968820736.0000           ZONE CHANGE =        6844.2354
       ZONE CHG TIP/TOE =    78250952.0000      ZONE CHG TIP/TOE =        1162.1304
            ZONE MIXING =           0.0000           ZONE MIXING =           0.0000

              TOTAL OUT = 15926771712.0000             TOTAL OUT =       66333.2188

               IN - OUT =   532364288.0000              IN - OUT =        2365.4766

    PERCENT DISCREPANCY =           3.29     PERCENT DISCREPANCY =           3.50


 HEAD WILL BE SAVED ON UNIT   51 AT END OF TIME STEP  180, STRESS PERIOD    3
1
  VOLUMETRIC BUDGET FOR ENTIRE MODEL AT END OF TIME STEP  180, STRESS PERIOD   3
  ------------------------------------------------------------------------------

     CUMULATIVE VOLUMES      L**3       RATES FOR THIS TIME STEP      L**3/T
     ------------------                 ------------------------

           IN:                                      IN:
           ---                                      ---
             STORAGE =           0.0000               STORAGE =           0.0000
       CONSTANT HEAD =           0.0000         CONSTANT HEAD =           0.0000
          SWIADDTOCH =           0.0000            SWIADDTOCH =           0.0000
     HEAD DEP BOUNDS =           0.0000       HEAD DEP BOUNDS =           0.0000
            RECHARGE = 56669114368.0000              RECHARGE =      674575.3125

            TOTAL IN = 56669114368.0000              TOTAL IN =      674575.3125

          OUT:                                     OUT:
          ----                                     ----
             STORAGE =           0.0000               STORAGE =           0.0000
       CONSTANT HEAD =           0.0000         CONSTANT HEAD =           0.0000
          SWIADDTOCH =           0.0000            SWIADDTOCH =           0.0000
     HEAD DEP BOUNDS = 56421462016.0000       HEAD DEP BOUNDS =      671630.5625
            RECHARGE =   247381616.0000              RECHARGE =        2944.7622

           TOTAL OUT = 56668844032.0000             TOTAL OUT =      674575.3125

            IN - OUT =      270336.0000              IN - OUT =           0.0000

 PERCENT DISCREPANCY =           0.00     PERCENT DISCREPANCY =           0.00






         TIME SUMMARY AT END OF TIME STEP  180 IN STRESS PERIOD    3
                    SECONDS     MINUTES      HOURS       DAYS        YEARS
                    -----------------------------------------------------------
   TIME STEP LENGTH 3.15576E+06  52596.      876.60      36.525     0.10000    
 STRESS PERIOD TIME 5.68036E+08 9.46726E+06 1.57788E+05  6574.5      18.000    
         TOTAL TIME 7.25822E+09 1.20970E+08 2.01617E+06  84007.      230.00    
1

 HEAD AND DRAWDOWN OBSERVATIONS
 OBSERVATION       OBSERVED           SIMULATED
   NAME              VALUE              VALUE             DIFFERENCE
 --------------------------------------------------------------------
 FLI182          5.5000000000        2.2299432755        3.2700567245    
 214601         0.20000000298        11.042821884       -10.842822075    
 214602         0.40000000596        11.068306923       -10.668307304    
 Taputimuwind   0.30000001192        10.886130333       -10.586130142    
 214604         0.60000002384        10.942581177       -10.342580795    
 Malaeloa70      2.5999999046        11.228233337       -8.6282329559    
 MOA15           2.2999999523        11.228115082       -8.9281148911    
 MOA169          3.5000000000        11.306041718       -7.8060417175    
 Puapua47        1.2000000477        11.289546967       -10.089547157    
 TGH1            3.5999999046        11.381816864       -7.7818169594    
 Malaeloa92      1.2000000477        11.370466232       -10.170466423    
 Malaeloa91      1.7999999523        11.458275795       -9.6582756042    
 TGH3            1.8999999762        11.778179169       -9.8781795502    
 PAV177          1.2999999523        11.806983948       -10.506983757    
 Iliili79       0.89999997616        11.851168633       -10.951169014    
 Iliili62        2.5999999046        11.855405807       -9.2554054260    
 MES6            44.700000763        11.741331100        32.958671570    
 ILI76           1.6000000238        11.924796104       -10.324795723    
 Iliili74        1.7999999523        11.929906845       -10.129906654    
 194407          3.0000000000        11.761735916       -8.7617359161    
 Iliili84        1.7999999523        11.996001244       -10.196001053    
 MMI3            5.9000000954        11.651699066       -5.7516989708    
 Malaeimi109     8.1999998093        11.695072174       -3.4950723648    
 Malaeimi89      6.0000000000        11.782229424       -5.7822294235    
 Malaeimi67      3.2000000477        11.822622299       -8.6226224899    
 MMI4            16.500000000        10.437499046        6.0625009537    
 194409          25.399999619        11.750527382        13.649472237    
 214301         0.60000002384        12.230752945       -11.630752563    
 MMI1            20.299999237        11.769475937        8.5305233002    
 TAF72           1.7999999523        11.956740379       -10.156740189    
 204301         0.30000001192        12.150465965       -11.850465775    
 204302         0.50000000000        12.352787018       -11.852787018    
 194302          1.0000000000        12.093852043       -11.093852043    
 VAI183          62.500000000        2.6237280369        59.876270294    
 NUULI24B        15.800000191        9.4191732407        6.3808269501    
 Pago100(wate    1.2000000477       -999.00000000    
 PAGO163         7.3000001907        2.1811513901        5.1188488007    
 PAGOTANK24      1.2000000477       -999.00000000    
 Pagoplaza12     3.0000000000        2.0607511997       0.93924880028    
 FALU179         2.7000000477        4.0344176292       -1.3344175816    
 174101          6.0999999046        3.6157488823        2.4842510223    
 UTULEI3        0.10000000149        2.2746372223       -2.1746373177    
 Sailele130      2.7000000477        1.8197647333       0.88023531437    
 163502          5.3000001907        3.6083323956        1.6916677952    
 163301          5.6999998093        3.4307639599        2.2692358494    
 MALAEIMI88      12.350000381        11.735930443       0.61406993866    
 MMI2            21.100000381        11.569101334        9.5308990479    
 Malaeimi69      5.3000001907        11.828874588       -6.5288743973    
 194311         0.87500000000        11.980992317       -11.105992317    
 194304          1.9333000183        11.995497704       -10.062197685    
 164204          9.1750001907        2.2364764214        6.9385237694    
 Pago107         16.466699600        2.3228969574        14.143802643    
 Fagatogo102     6.6500000954        2.3266971111        4.3233032227    
 VATI170         8.1499996185       -999.00000000    
 163903          5.5666999817        1.6545561552        3.9121437073    
 AUA98           4.9000000954        1.6043283939        3.2956717014    
 LAU96           6.6500000954        2.5093362331        4.1406641006    
 153401          3.0499999523        2.0319046974        1.0180952549    

 HEAD/DRAWDOWN SUM OF SQUARED DIFFERENCE:    8.36050E+03

 Run end date and time (yyyy/mm/dd hh:mm:ss): 2019/07/30 21:02:55
 Elapsed run time:  3 Minutes, 40.833 Seconds

