                                  MODFLOW-2005     
      U.S. GEOLOGICAL SURVEY MODULAR FINITE-DIFFERENCE GROUND-WATER FLOW MODEL
                            VERSION 1.12.00 2/3/2017

 LIST FILE: mf.list
                         UNIT    2

 OPENING mf.dis
 FILE TYPE:DIS   UNIT   11   STATUS:OLD    
 FORMAT:FORMATTED              ACCESS:SEQUENTIAL          

 OPENING mf.bas
 FILE TYPE:BAS6   UNIT   13   STATUS:OLD    
 FORMAT:FORMATTED              ACCESS:SEQUENTIAL          

 OPENING mf.lpf
 FILE TYPE:LPF   UNIT   15   STATUS:OLD    
 FORMAT:FORMATTED              ACCESS:SEQUENTIAL          

 OPENING mf.rch
 FILE TYPE:RCH   UNIT   19   STATUS:OLD    
 FORMAT:FORMATTED              ACCESS:SEQUENTIAL          

 OPENING mf.oc
 FILE TYPE:OC   UNIT   14   STATUS:OLD    
 FORMAT:FORMATTED              ACCESS:SEQUENTIAL          

 OPENING mf.pcg
 FILE TYPE:PCG   UNIT   27   STATUS:OLD    
 FORMAT:FORMATTED              ACCESS:SEQUENTIAL          

 OPENING mf.ghb
 FILE TYPE:GHB   UNIT   23   STATUS:OLD    
 FORMAT:FORMATTED              ACCESS:SEQUENTIAL          

 OPENING mf.hob
 FILE TYPE:HOB   UNIT   39   STATUS:OLD    
 FORMAT:FORMATTED              ACCESS:SEQUENTIAL          

 OPENING mf.hds
 FILE TYPE:DATA(BINARY)   UNIT   51   STATUS:REPLACE
 FORMAT:BINARY                 ACCESS:SEQUENTIAL          

 OPENING mf.hob.out
 FILE TYPE:DATA   UNIT    7   STATUS:UNKNOWN
 FORMAT:FORMATTED              ACCESS:SEQUENTIAL          

 BAS -- BASIC PACKAGE, VERSION 7, 5/2/2005 INPUT READ FROM UNIT   13
 
 MODFLOW was compiled using mixed precision
 Precision of REAL variables:           6
 Precision of DOUBLE PRECISION variables:          15

 DISCRETIZATION INPUT DATA READ FROM UNIT   11
 # DIS package for  MODFLOW-2005, generated by Flopy.
    1 LAYERS       100 ROWS       200 COLUMNS
    1 STRESS PERIOD(S) IN SIMULATION
 MODEL TIME UNIT IS DAYS
 MODEL LENGTH UNIT IS METERS
  Confining bed flag for each layer:
   0

                     DELR =   169.000    

                     DELC =   165.000    



           TOP ELEVATION OF LAYER 1
 READING ON UNIT   11 WITH FORMAT: (200E15.6)          

   MODEL LAYER BOTTOM EL. =  -1250.00     FOR LAYER   1


 STRESS PERIOD     LENGTH       TIME STEPS     MULTIPLIER FOR DELT    SS FLAG
 ----------------------------------------------------------------------------
        1         36525.00        100                    1.000         SS

 STEADY-STATE SIMULATION



 
 # BAS6 package for  MODFLOW-2005, generated by Flopy.                           
 THE FREE FORMAT OPTION HAS BEEN SELECTED



                     BOUNDARY ARRAY FOR LAYER   1
 READING ON UNIT   13 WITH FORMAT: (200I10)            

 AQUIFER HEAD WILL BE SET TO  -999.99     AT ALL NO-FLOW NODES (IBOUND=0).



                       INITIAL HEAD FOR LAYER   1
 READING ON UNIT   13 WITH FORMAT: (200E15.6)          
 # OC package for  MODFLOW-2005, generated by Flopy.

 OUTPUT CONTROL IS SPECIFIED ONLY AT TIME STEPS FOR WHICH OUTPUT IS DESIRED
 COMPACT CELL-BY-CELL BUDGET FILES WILL BE WRITTEN
 AUXILIARY DATA WILL BE SAVED IN CELL-BY-CELL BUDGET FILES
 HEAD PRINT FORMAT CODE IS   0    DRAWDOWN PRINT FORMAT CODE IS   0
 HEADS WILL BE SAVED ON UNIT   51    DRAWDOWNS WILL BE SAVED ON UNIT    0

 LPF -- LAYER-PROPERTY FLOW PACKAGE, VERSION 7, 5/2/2005
         INPUT READ FROM UNIT   15
 # LPF package for  MODFLOW-2005, generated by Flopy.
 HEAD AT CELLS THAT CONVERT TO DRY= -1.00000E+30
 No named parameters

   LAYER FLAGS:
 LAYER       LAYTYP        LAYAVG         CHANI        LAYVKA        LAYWET
 ---------------------------------------------------------------------------
    1             0             0     1.000E+00             0             0

   INTERPRETATION OF LAYER FLAGS:
                        INTERBLOCK     HORIZONTAL    DATA IN
         LAYER TYPE   TRANSMISSIVITY   ANISOTROPY   ARRAY VKA   WETTABILITY
 LAYER      (LAYTYP)      (LAYAVG)       (CHANI)      (LAYVKA)      (LAYWET)
 ---------------------------------------------------------------------------
    1      CONFINED      HARMONIC     1.000E+00    VERTICAL K  NON-WETTABLE

 WETTING CAPABILITY IS NOT ACTIVE IN ANY LAYER



              HYD. COND. ALONG ROWS FOR LAYER   1
 READING ON UNIT   15 WITH FORMAT: (200E15.6)          

      VERTICAL HYD. COND. =   10.0000     FOR LAYER   1

 GHB -- GENERAL-HEAD BOUNDARY PACKAGE, VERSION 7, 5/2/2005
         INPUT READ FROM UNIT   23
 # GHB package for  MODFLOW-2005, generated by Flopy.
 No named parameters
 MAXIMUM OF   7876 ACTIVE GHB CELLS AT ONE TIME


     0 GHB parameters

 RCH -- RECHARGE PACKAGE, VERSION 7, 5/2/2005 INPUT READ FROM UNIT   19
 # RCH package for  MODFLOW-2005, generated by Flopy.
 No named parameters
 OPTION 3 -- RECHARGE TO HIGHEST ACTIVE NODE IN EACH VERTICAL COLUMN


     0 Recharge parameters

 PCG -- CONJUGATE-GRADIENT SOLUTION PACKAGE, VERSION 7, 5/2/2005
 # PCG package for  MODFLOW-2005, generated by Flopy.
 MAXIMUM OF    100 CALLS OF SOLUTION ROUTINE
 MAXIMUM OF     50 INTERNAL ITERATIONS PER CALL TO SOLUTION ROUTINE
 MATRIX PRECONDITIONING TYPE :    1



                                    SOLUTION BY THE CONJUGATE-GRADIENT METHOD
                                   -------------------------------------------
                    MAXIMUM NUMBER OF CALLS TO PCG ROUTINE =      100
                        MAXIMUM ITERATIONS PER CALL TO PCG =       50
                               MATRIX PRECONDITIONING TYPE =        1
        RELAXATION FACTOR (ONLY USED WITH PRECOND. TYPE 1) =    0.10000E+01
 PARAMETER OF POLYNOMIAL PRECOND. = 2 (2) OR IS CALCULATED :        0
                         HEAD CHANGE CRITERION FOR CLOSURE =    0.10000E-05
                     RESIDUAL CHANGE CRITERION FOR CLOSURE =    0.30000E-02
            PCG HEAD AND RESIDUAL CHANGE PRINTOUT INTERVAL =      999
     PRINTING FROM SOLVER IS LIMITED(1) OR SUPPRESSED (>1) =        3
                            STEADY-STATE DAMPING PARAMETER =    0.10000E+01
                               TRANSIENT DAMPING PARAMETER =    0.10000E+01

 OBS2BAS7 -- HEAD OBSERVATIONS, VERSION 2.0, 2/28/2006
 INPUT READ FROM UNIT  39
 # HOB package for  MODFLOW-2005, generated by Flopy.

 NUMBER OF HEADS....................................:  208
   NUMBER OF MULTILAYER HEADS.......................:    0
   MAXIMUM NUMBER OF LAYERS FOR MULTILAYER HEADS....:    0
 HEAD OBSERVATIONS WILL BE SAVED ON UNIT............:    7
 SIMULATED EQUIVALENT HEAD AT DRY CELLS WILL BE:   -999.000    

 OBSERVED HEAD DATA -- TIME OFFSETS ARE MULTIPLIED BY:   1.0000    

                    REFER.
       OBSERVATION  STRESS    TIME
  OBS#    NAME      PERIOD   OFFSET    OBSERVATION
     1 Obs_0            1    0.000      0.5000E-01
 Observation within a steady-state time step has been moved to the end of the time step.
     2 Obs_1            1    0.000      0.5000E-01
 Observation within a steady-state time step has been moved to the end of the time step.
     3 Obs_2            1    0.000      0.5000E-01
 Observation within a steady-state time step has been moved to the end of the time step.
     4 Obs_3            1    0.000      0.5000E-01
 Observation within a steady-state time step has been moved to the end of the time step.
     5 Obs_4            1    0.000      0.5000E-01
 Observation within a steady-state time step has been moved to the end of the time step.
     6 Obs_5            1    0.000      0.5000E-01
 Observation within a steady-state time step has been moved to the end of the time step.
     7 Obs_6            1    0.000      0.5000E-01
 Observation within a steady-state time step has been moved to the end of the time step.
     8 Obs_7            1    0.000      0.5000E-01
 Observation within a steady-state time step has been moved to the end of the time step.
     9 Obs_8            1    0.000      0.5000E-01
 Observation within a steady-state time step has been moved to the end of the time step.
    10 Obs_9            1    0.000      0.5000E-01
 Observation within a steady-state time step has been moved to the end of the time step.
    11 Obs_10           1    0.000      0.5000E-01
 Observation within a steady-state time step has been moved to the end of the time step.
    12 Obs_11           1    0.000      0.5000E-01
 Observation within a steady-state time step has been moved to the end of the time step.
    13 Obs_12           1    0.000      0.5000E-01
 Observation within a steady-state time step has been moved to the end of the time step.
    14 Obs_13           1    0.000      0.5000E-01
 Observation within a steady-state time step has been moved to the end of the time step.
    15 Obs_14           1    0.000      0.5000E-01
 Observation within a steady-state time step has been moved to the end of the time step.
    16 Obs_15           1    0.000      0.5000E-01
 Observation within a steady-state time step has been moved to the end of the time step.
    17 Obs_16           1    0.000      0.5000E-01
 Observation within a steady-state time step has been moved to the end of the time step.
    18 Obs_17           1    0.000      0.5000E-01
 Observation within a steady-state time step has been moved to the end of the time step.
    19 Obs_18           1    0.000      0.5000E-01
 Observation within a steady-state time step has been moved to the end of the time step.
    20 Obs_19           1    0.000      0.5000E-01
 Observation within a steady-state time step has been moved to the end of the time step.
    21 Obs_20           1    0.000       5.500    
 Observation within a steady-state time step has been moved to the end of the time step.
    22 Obs_21           1    0.000      0.5000E-01
 Observation within a steady-state time step has been moved to the end of the time step.
    23 Obs_22           1    0.000      0.5000E-01
 Observation within a steady-state time step has been moved to the end of the time step.
    24 Obs_23           1    0.000      0.5000E-01
 Observation within a steady-state time step has been moved to the end of the time step.
    25 Obs_24           1    0.000      0.5000E-01
 Observation within a steady-state time step has been moved to the end of the time step.
    26 Obs_25           1    0.000      0.5000E-01
 Observation within a steady-state time step has been moved to the end of the time step.
    27 Obs_26           1    0.000      0.5000E-01
 Observation within a steady-state time step has been moved to the end of the time step.
    28 Obs_27           1    0.000      0.5000E-01
 Observation within a steady-state time step has been moved to the end of the time step.
    29 Obs_28           1    0.000      0.5000E-01
 Observation within a steady-state time step has been moved to the end of the time step.
    30 Obs_29           1    0.000      0.5000E-01
 Observation within a steady-state time step has been moved to the end of the time step.
    31 Obs_30           1    0.000      0.5000E-01
 Observation within a steady-state time step has been moved to the end of the time step.
    32 Obs_31           1    0.000      0.5000E-01
 Observation within a steady-state time step has been moved to the end of the time step.
    33 Obs_32           1    0.000      0.5000E-01
 Observation within a steady-state time step has been moved to the end of the time step.
    34 Obs_33           1    0.000      0.5000E-01
 Observation within a steady-state time step has been moved to the end of the time step.
    35 Obs_34           1    0.000      0.5000E-01
 Observation within a steady-state time step has been moved to the end of the time step.
    36 Obs_35           1    0.000      0.5000E-01
 Observation within a steady-state time step has been moved to the end of the time step.
    37 Obs_36           1    0.000      0.5000E-01
 Observation within a steady-state time step has been moved to the end of the time step.
    38 Obs_37           1    0.000      0.5000E-01
 Observation within a steady-state time step has been moved to the end of the time step.
    39 Obs_38           1    0.000      0.5000E-01
 Observation within a steady-state time step has been moved to the end of the time step.
    40 Obs_39           1    0.000      0.5000E-01
 Observation within a steady-state time step has been moved to the end of the time step.
    41 Obs_40           1    0.000      0.5000E-01
 Observation within a steady-state time step has been moved to the end of the time step.
    42 Obs_41           1    0.000      0.5000E-01
 Observation within a steady-state time step has been moved to the end of the time step.
    43 Obs_42           1    0.000      0.2000    
 Observation within a steady-state time step has been moved to the end of the time step.
    44 Obs_43           1    0.000      0.4000    
 Observation within a steady-state time step has been moved to the end of the time step.
    45 Obs_44           1    0.000      0.3000    
 Observation within a steady-state time step has been moved to the end of the time step.
    46 Obs_45           1    0.000      0.6000    
 Observation within a steady-state time step has been moved to the end of the time step.
    47 Obs_46           1    0.000       2.300    
 Observation within a steady-state time step has been moved to the end of the time step.
    48 Obs_47           1    0.000       2.600    
 Observation within a steady-state time step has been moved to the end of the time step.
    49 Obs_48           1    0.000       3.500    
 Observation within a steady-state time step has been moved to the end of the time step.
    50 Obs_49           1    0.000      0.5000E-01
 Observation within a steady-state time step has been moved to the end of the time step.
    51 Obs_50           1    0.000      0.5000E-01
 Observation within a steady-state time step has been moved to the end of the time step.
    52 Obs_51           1    0.000      0.5000E-01
 Observation within a steady-state time step has been moved to the end of the time step.
    53 Obs_52           1    0.000      0.5000E-01
 Observation within a steady-state time step has been moved to the end of the time step.
    54 Obs_53           1    0.000       1.200    
 Observation within a steady-state time step has been moved to the end of the time step.
    55 Obs_54           1    0.000      0.5000E-01
 Observation within a steady-state time step has been moved to the end of the time step.
    56 Obs_55           1    0.000       3.600    
 Observation within a steady-state time step has been moved to the end of the time step.
    57 Obs_56           1    0.000       2.430    
 Observation within a steady-state time step has been moved to the end of the time step.
    58 Obs_57           1    0.000      0.5000E-01
 Observation within a steady-state time step has been moved to the end of the time step.
    59 Obs_58           1    0.000      0.5000E-01
 Observation within a steady-state time step has been moved to the end of the time step.
    60 Obs_59           1    0.000      0.5000E-01
 Observation within a steady-state time step has been moved to the end of the time step.
    61 Obs_60           1    0.000      0.5000E-01
 Observation within a steady-state time step has been moved to the end of the time step.
    62 Obs_61           1    0.000      0.5000E-01
 Observation within a steady-state time step has been moved to the end of the time step.
    63 Obs_62           1    0.000       1.900    
 Observation within a steady-state time step has been moved to the end of the time step.
    64 Obs_63           1    0.000       1.300    
 Observation within a steady-state time step has been moved to the end of the time step.
    65 Obs_64           1    0.000      0.9000    
 Observation within a steady-state time step has been moved to the end of the time step.
    66 Obs_65           1    0.000       44.70    
 Observation within a steady-state time step has been moved to the end of the time step.
    67 Obs_66           1    0.000       2.600    
 Observation within a steady-state time step has been moved to the end of the time step.
    68 Obs_67           1    0.000       1.700    
 Observation within a steady-state time step has been moved to the end of the time step.
    69 Obs_68           1    0.000       3.000    
 Observation within a steady-state time step has been moved to the end of the time step.
    70 Obs_69           1    0.000       1.800    
 Observation within a steady-state time step has been moved to the end of the time step.
    71 Obs_70           1    0.000      0.5000E-01
 Observation within a steady-state time step has been moved to the end of the time step.
    72 Obs_71           1    0.000      0.5000E-01
 Observation within a steady-state time step has been moved to the end of the time step.
    73 Obs_72           1    0.000      0.5000E-01
 Observation within a steady-state time step has been moved to the end of the time step.
    74 Obs_73           1    0.000      0.5000E-01
 Observation within a steady-state time step has been moved to the end of the time step.
    75 Obs_74           1    0.000       5.900    
 Observation within a steady-state time step has been moved to the end of the time step.
    76 Obs_75           1    0.000       19.20    
 Observation within a steady-state time step has been moved to the end of the time step.
    77 Obs_76           1    0.000      0.5000E-01
 Observation within a steady-state time step has been moved to the end of the time step.
    78 Obs_77           1    0.000       8.000    
 Observation within a steady-state time step has been moved to the end of the time step.
    79 Obs_78           1    0.000       8.200    
 Observation within a steady-state time step has been moved to the end of the time step.
    80 Obs_79           1    0.000       5.750    
 Observation within a steady-state time step has been moved to the end of the time step.
    81 Obs_80           1    0.000       34.20    
 Observation within a steady-state time step has been moved to the end of the time step.
    82 Obs_81           1    0.000       3.200    
 Observation within a steady-state time step has been moved to the end of the time step.
    83 Obs_82           1    0.000       16.85    
 Observation within a steady-state time step has been moved to the end of the time step.
    84 Obs_83           1    0.000       25.40    
 Observation within a steady-state time step has been moved to the end of the time step.
    85 Obs_84           1    0.000       1.800    
 Observation within a steady-state time step has been moved to the end of the time step.
    86 Obs_85           1    0.000       8.800    
 Observation within a steady-state time step has been moved to the end of the time step.
    87 Obs_86           1    0.000      0.8500    
 Observation within a steady-state time step has been moved to the end of the time step.
    88 Obs_87           1    0.000      0.9000    
 Observation within a steady-state time step has been moved to the end of the time step.
    89 Obs_88           1    0.000      0.6000    
 Observation within a steady-state time step has been moved to the end of the time step.
    90 Obs_89           1    0.000       20.30    
 Observation within a steady-state time step has been moved to the end of the time step.
    91 Obs_90           1    0.000       1.800    
 Observation within a steady-state time step has been moved to the end of the time step.
    92 Obs_91           1    0.000       1.628    
 Observation within a steady-state time step has been moved to the end of the time step.
    93 Obs_92           1    0.000      0.3000    
 Observation within a steady-state time step has been moved to the end of the time step.
    94 Obs_93           1    0.000      0.5000E-01
 Observation within a steady-state time step has been moved to the end of the time step.
    95 Obs_94           1    0.000      0.5000E-01
 Observation within a steady-state time step has been moved to the end of the time step.
    96 Obs_95           1    0.000      0.5000E-01
 Observation within a steady-state time step has been moved to the end of the time step.
    97 Obs_96           1    0.000      0.5000E-01
 Observation within a steady-state time step has been moved to the end of the time step.
    98 Obs_97           1    0.000      0.5000E-01
 Observation within a steady-state time step has been moved to the end of the time step.
    99 Obs_98           1    0.000      0.5000E-01
 Observation within a steady-state time step has been moved to the end of the time step.
   100 Obs_99           1    0.000      0.5000    
 Observation within a steady-state time step has been moved to the end of the time step.
   101 Obs_100          1    0.000       1.000    
 Observation within a steady-state time step has been moved to the end of the time step.
   102 Obs_101          1    0.000       62.50    
 Observation within a steady-state time step has been moved to the end of the time step.
   103 Obs_102          1    0.000      0.5000E-01
 Observation within a steady-state time step has been moved to the end of the time step.
   104 Obs_103          1    0.000      0.5000E-01
 Observation within a steady-state time step has been moved to the end of the time step.
   105 Obs_104          1    0.000       15.80    
 Observation within a steady-state time step has been moved to the end of the time step.
   106 Obs_105          1    0.000      0.5000E-01
 Observation within a steady-state time step has been moved to the end of the time step.
   107 Obs_106          1    0.000      0.5000E-01
 Observation within a steady-state time step has been moved to the end of the time step.
   108 Obs_107          1    0.000      0.5000E-01
 Observation within a steady-state time step has been moved to the end of the time step.
   109 Obs_108          1    0.000       1.200    
 Observation within a steady-state time step has been moved to the end of the time step.
   110 Obs_109          1    0.000       7.300    
 Observation within a steady-state time step has been moved to the end of the time step.
   111 Obs_110          1    0.000       7.300    
 Observation within a steady-state time step has been moved to the end of the time step.
   112 Obs_111          1    0.000       9.800    
 Observation within a steady-state time step has been moved to the end of the time step.
   113 Obs_112          1    0.000       16.47    
 Observation within a steady-state time step has been moved to the end of the time step.
   114 Obs_113          1    0.000       1.200    
 Observation within a steady-state time step has been moved to the end of the time step.
   115 Obs_114          1    0.000       3.000    
 Observation within a steady-state time step has been moved to the end of the time step.
   116 Obs_115          1    0.000      0.5000E-01
 Observation within a steady-state time step has been moved to the end of the time step.
   117 Obs_116          1    0.000       6.650    
 Observation within a steady-state time step has been moved to the end of the time step.
   118 Obs_117          1    0.000      0.5000E-01
 Observation within a steady-state time step has been moved to the end of the time step.
   119 Obs_118          1    0.000      0.5000E-01
 Observation within a steady-state time step has been moved to the end of the time step.
   120 Obs_119          1    0.000      0.5000E-01
 Observation within a steady-state time step has been moved to the end of the time step.
   121 Obs_120          1    0.000      0.5000E-01
 Observation within a steady-state time step has been moved to the end of the time step.
   122 Obs_121          1    0.000      0.5000E-01
 Observation within a steady-state time step has been moved to the end of the time step.
   123 Obs_122          1    0.000       2.700    
 Observation within a steady-state time step has been moved to the end of the time step.
   124 Obs_123          1    0.000       6.100    
 Observation within a steady-state time step has been moved to the end of the time step.
   125 Obs_124          1    0.000      0.1000    
 Observation within a steady-state time step has been moved to the end of the time step.
   126 Obs_125          1    0.000      0.5000E-01
 Observation within a steady-state time step has been moved to the end of the time step.
   127 Obs_126          1    0.000      0.5000E-01
 Observation within a steady-state time step has been moved to the end of the time step.
   128 Obs_127          1    0.000      0.5000E-01
 Observation within a steady-state time step has been moved to the end of the time step.
   129 Obs_128          1    0.000      0.5000E-01
 Observation within a steady-state time step has been moved to the end of the time step.
   130 Obs_129          1    0.000      0.5000E-01
 Observation within a steady-state time step has been moved to the end of the time step.
   131 Obs_130          1    0.000      0.5000E-01
 Observation within a steady-state time step has been moved to the end of the time step.
   132 Obs_131          1    0.000       8.100    
 Observation within a steady-state time step has been moved to the end of the time step.
   133 Obs_132          1    0.000       8.200    
 Observation within a steady-state time step has been moved to the end of the time step.
   134 Obs_133          1    0.000      0.5000E-01
 Observation within a steady-state time step has been moved to the end of the time step.
   135 Obs_134          1    0.000       4.300    
 Observation within a steady-state time step has been moved to the end of the time step.
   136 Obs_135          1    0.000       5.567    
 Observation within a steady-state time step has been moved to the end of the time step.
   137 Obs_136          1    0.000      0.5000E-01
 Observation within a steady-state time step has been moved to the end of the time step.
   138 Obs_137          1    0.000      0.5000E-01
 Observation within a steady-state time step has been moved to the end of the time step.
   139 Obs_138          1    0.000      0.5000E-01
 Observation within a steady-state time step has been moved to the end of the time step.
   140 Obs_139          1    0.000      0.5000E-01
 Observation within a steady-state time step has been moved to the end of the time step.
   141 Obs_140          1    0.000      0.5000E-01
 Observation within a steady-state time step has been moved to the end of the time step.
   142 Obs_141          1    0.000      0.5000E-01
 Observation within a steady-state time step has been moved to the end of the time step.
   143 Obs_142          1    0.000       5.500    
 Observation within a steady-state time step has been moved to the end of the time step.
   144 Obs_143          1    0.000       7.300    
 Observation within a steady-state time step has been moved to the end of the time step.
   145 Obs_144          1    0.000       6.000    
 Observation within a steady-state time step has been moved to the end of the time step.
   146 Obs_145          1    0.000      0.5000E-01
 Observation within a steady-state time step has been moved to the end of the time step.
   147 Obs_146          1    0.000      0.5000E-01
 Observation within a steady-state time step has been moved to the end of the time step.
   148 Obs_147          1    0.000      0.5000E-01
 Observation within a steady-state time step has been moved to the end of the time step.
   149 Obs_148          1    0.000      0.5000E-01
 Observation within a steady-state time step has been moved to the end of the time step.
   150 Obs_149          1    0.000      0.5000E-01
 Observation within a steady-state time step has been moved to the end of the time step.
   151 Obs_150          1    0.000      0.5000E-01
 Observation within a steady-state time step has been moved to the end of the time step.
   152 Obs_151          1    0.000      0.5000E-01
 Observation within a steady-state time step has been moved to the end of the time step.
   153 Obs_152          1    0.000      0.5000E-01
 Observation within a steady-state time step has been moved to the end of the time step.
   154 Obs_153          1    0.000      0.5000E-01
 Observation within a steady-state time step has been moved to the end of the time step.
   155 Obs_154          1    0.000      0.5000E-01
 Observation within a steady-state time step has been moved to the end of the time step.
   156 Obs_155          1    0.000      0.5000E-01
 Observation within a steady-state time step has been moved to the end of the time step.
   157 Obs_156          1    0.000      0.5000E-01
 Observation within a steady-state time step has been moved to the end of the time step.
   158 Obs_157          1    0.000      0.5000E-01
 Observation within a steady-state time step has been moved to the end of the time step.
   159 Obs_158          1    0.000      0.5000E-01
 Observation within a steady-state time step has been moved to the end of the time step.
   160 Obs_159          1    0.000      0.5000E-01
 Observation within a steady-state time step has been moved to the end of the time step.
   161 Obs_160          1    0.000      0.5000E-01
 Observation within a steady-state time step has been moved to the end of the time step.
   162 Obs_161          1    0.000      0.5000E-01
 Observation within a steady-state time step has been moved to the end of the time step.
   163 Obs_162          1    0.000      0.5000E-01
 Observation within a steady-state time step has been moved to the end of the time step.
   164 Obs_163          1    0.000      0.5000E-01
 Observation within a steady-state time step has been moved to the end of the time step.
   165 Obs_164          1    0.000      0.5000E-01
 Observation within a steady-state time step has been moved to the end of the time step.
   166 Obs_165          1    0.000      0.5000E-01
 Observation within a steady-state time step has been moved to the end of the time step.
   167 Obs_166          1    0.000      0.5000E-01
 Observation within a steady-state time step has been moved to the end of the time step.
   168 Obs_167          1    0.000      0.5000E-01
 Observation within a steady-state time step has been moved to the end of the time step.
   169 Obs_168          1    0.000      0.5000E-01
 Observation within a steady-state time step has been moved to the end of the time step.
   170 Obs_169          1    0.000      0.5000E-01
 Observation within a steady-state time step has been moved to the end of the time step.
   171 Obs_170          1    0.000      0.5000E-01
 Observation within a steady-state time step has been moved to the end of the time step.
   172 Obs_171          1    0.000      0.5000E-01
 Observation within a steady-state time step has been moved to the end of the time step.
   173 Obs_172          1    0.000      0.5000E-01
 Observation within a steady-state time step has been moved to the end of the time step.
   174 Obs_173          1    0.000      0.5000E-01
 Observation within a steady-state time step has been moved to the end of the time step.
   175 Obs_174          1    0.000      0.5000E-01
 Observation within a steady-state time step has been moved to the end of the time step.
   176 Obs_175          1    0.000      0.5000E-01
 Observation within a steady-state time step has been moved to the end of the time step.
   177 Obs_176          1    0.000      0.5000E-01
 Observation within a steady-state time step has been moved to the end of the time step.
   178 Obs_177          1    0.000       2.700    
 Observation within a steady-state time step has been moved to the end of the time step.
   179 Obs_178          1    0.000       5.300    
 Observation within a steady-state time step has been moved to the end of the time step.
   180 Obs_179          1    0.000      0.5000E-01
 Observation within a steady-state time step has been moved to the end of the time step.
   181 Obs_180          1    0.000      0.5000E-01
 Observation within a steady-state time step has been moved to the end of the time step.
   182 Obs_181          1    0.000      0.5000E-01
 Observation within a steady-state time step has been moved to the end of the time step.
   183 Obs_182          1    0.000      0.5000E-01
 Observation within a steady-state time step has been moved to the end of the time step.
   184 Obs_183          1    0.000      0.5000E-01
 Observation within a steady-state time step has been moved to the end of the time step.
   185 Obs_184          1    0.000      0.5000E-01
 Observation within a steady-state time step has been moved to the end of the time step.
   186 Obs_185          1    0.000      0.5000E-01
 Observation within a steady-state time step has been moved to the end of the time step.
   187 Obs_186          1    0.000      0.5000E-01
 Observation within a steady-state time step has been moved to the end of the time step.
   188 Obs_187          1    0.000       3.100    
 Observation within a steady-state time step has been moved to the end of the time step.
   189 Obs_188          1    0.000      0.5000E-01
 Observation within a steady-state time step has been moved to the end of the time step.
   190 Obs_189          1    0.000       3.000    
 Observation within a steady-state time step has been moved to the end of the time step.
   191 Obs_190          1    0.000      0.5000E-01
 Observation within a steady-state time step has been moved to the end of the time step.
   192 Obs_191          1    0.000      0.5000E-01
 Observation within a steady-state time step has been moved to the end of the time step.
   193 Obs_192          1    0.000      0.5000E-01
 Observation within a steady-state time step has been moved to the end of the time step.
   194 Obs_193          1    0.000      0.5000E-01
 Observation within a steady-state time step has been moved to the end of the time step.
   195 Obs_194          1    0.000      0.5000E-01
 Observation within a steady-state time step has been moved to the end of the time step.
   196 Obs_195          1    0.000      0.5000E-01
 Observation within a steady-state time step has been moved to the end of the time step.
   197 Obs_196          1    0.000      0.5000E-01
 Observation within a steady-state time step has been moved to the end of the time step.
   198 Obs_197          1    0.000       5.700    
 Observation within a steady-state time step has been moved to the end of the time step.
   199 Obs_198          1    0.000      0.5000E-01
 Observation within a steady-state time step has been moved to the end of the time step.
   200 Obs_199          1    0.000      0.5000E-01
 Observation within a steady-state time step has been moved to the end of the time step.
   201 Obs_200          1    0.000      0.5000E-01
 Observation within a steady-state time step has been moved to the end of the time step.
   202 Obs_201          1    0.000      0.5000E-01
 Observation within a steady-state time step has been moved to the end of the time step.
   203 Obs_202          1    0.000      0.5000E-01
 Observation within a steady-state time step has been moved to the end of the time step.
   204 Obs_203          1    0.000      0.5000E-01
 Observation within a steady-state time step has been moved to the end of the time step.
   205 Obs_204          1    0.000      0.5000E-01
 Observation within a steady-state time step has been moved to the end of the time step.
   206 Obs_205          1    0.000      0.5000E-01
 Observation within a steady-state time step has been moved to the end of the time step.
   207 Obs_206          1    0.000      0.5000E-01
 Observation within a steady-state time step has been moved to the end of the time step.
   208 Obs_207          1    0.000      0.5000E-01
 Observation within a steady-state time step has been moved to the end of the time step.

                                                     HEAD CHANGE
                                                      REFERENCE
        OBSERVATION                   ROW     COL    OBSERVATION
  OBS#     NAME       LAY  ROW  COL  OFFSET  OFFSET   (IF > 0)
     1  Obs_0           1    6    7   0.000   0.000        0
     2  Obs_1           1   16    7   0.000   0.000        0
     3  Obs_2           1   26    7   0.000   0.000        0
     4  Obs_3           1   36    7   0.000   0.000        0
     5  Obs_4           1   46    7   0.000   0.000        0
     6  Obs_5           1   56    7   0.000   0.000        0
     7  Obs_6           1   66    7   0.000   0.000        0
     8  Obs_7           1   76    7   0.000   0.000        0
     9  Obs_8           1   86    7   0.000   0.000        0
    10  Obs_9           1   96    7   0.000   0.000        0
    11  Obs_10          1    6   17   0.000   0.000        0
    12  Obs_11          1   16   17   0.000   0.000        0
    13  Obs_12          1   26   17   0.000   0.000        0
    14  Obs_13          1   36   17   0.000   0.000        0
    15  Obs_14          1   46   17   0.000   0.000        0
    16  Obs_15          1   56   17   0.000   0.000        0
    17  Obs_16          1   66   17   0.000   0.000        0
    18  Obs_17          1   76   17   0.000   0.000        0
    19  Obs_18          1   86   17   0.000   0.000        0
    20  Obs_19          1   96   17   0.000   0.000        0
    21  Obs_20          1   55   22   0.000   0.000        0
    22  Obs_21          1    6   27   0.000   0.000        0
    23  Obs_22          1   16   27   0.000   0.000        0
    24  Obs_23          1   26   27   0.000   0.000        0
    25  Obs_24          1   36   27   0.000   0.000        0
    26  Obs_25          1   46   27   0.000   0.000        0
    27  Obs_26          1   76   27   0.000   0.000        0
    28  Obs_27          1   86   27   0.000   0.000        0
    29  Obs_28          1   96   27   0.000   0.000        0
    30  Obs_29          1    6   37   0.000   0.000        0
    31  Obs_30          1   16   37   0.000   0.000        0
    32  Obs_31          1   26   37   0.000   0.000        0
    33  Obs_32          1   36   37   0.000   0.000        0
    34  Obs_33          1   76   37   0.000   0.000        0
    35  Obs_34          1   86   37   0.000   0.000        0
    36  Obs_35          1   96   37   0.000   0.000        0
    37  Obs_36          1    6   47   0.000   0.000        0
    38  Obs_37          1   16   47   0.000   0.000        0
    39  Obs_38          1   26   47   0.000   0.000        0
    40  Obs_39          1   36   47   0.000   0.000        0
    41  Obs_40          1   86   47   0.000   0.000        0
    42  Obs_41          1   96   47   0.000   0.000        0
    43  Obs_42          1   78   50   0.000   0.000        0
    44  Obs_43          1   81   52   0.000   0.000        0
    45  Obs_44          1   86   52   0.000   0.000        0
    46  Obs_45          1   85   53   0.000   0.000        0
    47  Obs_46          1   71   55   0.000   0.000        0
    48  Obs_47          1   74   55   0.000   0.000        0
    49  Obs_48          1   70   56   0.000   0.000        0
    50  Obs_49          1    6   57   0.000   0.000        0
    51  Obs_50          1   16   57   0.000   0.000        0
    52  Obs_51          1   26   57   0.000   0.000        0
    53  Obs_52          1   36   57   0.000   0.000        0
    54  Obs_53          1   77   57   0.000   0.000        0
    55  Obs_54          1   96   57   0.000   0.000        0
    56  Obs_55          1   70   59   0.000   0.000        0
    57  Obs_56          1   76   60   0.000   0.000        0
    58  Obs_57          1    6   67   0.000   0.000        0
    59  Obs_58          1   16   67   0.000   0.000        0
    60  Obs_59          1   26   67   0.000   0.000        0
    61  Obs_60          1   36   67   0.000   0.000        0
    62  Obs_61          1   96   67   0.000   0.000        0
    63  Obs_62          1   79   69   0.000   0.000        0
    64  Obs_63          1   72   71   0.000   0.000        0
    65  Obs_64          1   79   71   0.000   0.000        0
    66  Obs_65          1   64   72   0.000   0.000        0
    67  Obs_66          1   79   72   0.000   0.000        0
    68  Obs_67          1   79   73   0.000   0.000        0
    69  Obs_68          1   63   75   0.000   0.000        0
    70  Obs_69          1   78   75   0.000   0.000        0
    71  Obs_70          1    6   77   0.000   0.000        0
    72  Obs_71          1   16   77   0.000   0.000        0
    73  Obs_72          1   26   77   0.000   0.000        0
    74  Obs_73          1   36   77   0.000   0.000        0
    75  Obs_74          1   56   77   0.000   0.000        0
    76  Obs_75          1   60   77   0.000   0.000        0
    77  Obs_76          1   96   77   0.000   0.000        0
    78  Obs_77          1   54   78   0.000   0.000        0
    79  Obs_78          1   58   78   0.000   0.000        0
    80  Obs_79          1   59   78   0.000   0.000        0
    81  Obs_80          1   54   79   0.000   0.000        0
    82  Obs_81          1   60   79   0.000   0.000        0
    83  Obs_82          1   52   80   0.000   0.000        0
    84  Obs_83          1   57   80   0.000   0.000        0
    85  Obs_84          1   60   80   0.000   0.000        0
    86  Obs_85          1   59   81   0.000   0.000        0
    87  Obs_86          1   64   81   0.000   0.000        0
    88  Obs_87          1   65   81   0.000   0.000        0
    89  Obs_88          1   84   81   0.000   0.000        0
    90  Obs_89          1   56   82   0.000   0.000        0
    91  Obs_90          1   62   82   0.000   0.000        0
    92  Obs_91          1   64   82   0.000   0.000        0
    93  Obs_92          1   68   85   0.000   0.000        0
    94  Obs_93          1    6   87   0.000   0.000        0
    95  Obs_94          1   16   87   0.000   0.000        0
    96  Obs_95          1   26   87   0.000   0.000        0
    97  Obs_96          1   36   87   0.000   0.000        0
    98  Obs_97          1   86   87   0.000   0.000        0
    99  Obs_98          1   96   87   0.000   0.000        0
   100  Obs_99          1   76   88   0.000   0.000        0
   101  Obs_100         1   63   89   0.000   0.000        0
   102  Obs_101         1   36   96   0.000   0.000        0
   103  Obs_102         1    6   97   0.000   0.000        0
   104  Obs_103         1   16   97   0.000   0.000        0
   105  Obs_104         1   51   97   0.000   0.000        0
   106  Obs_105         1   76   97   0.000   0.000        0
   107  Obs_106         1   86   97   0.000   0.000        0
   108  Obs_107         1   96   97   0.000   0.000        0
   109  Obs_108         1   29   98   0.000   0.000        0
   110  Obs_109         1   30   98   0.000   0.000        0
   111  Obs_110         1   31   98   0.000   0.000        0
   112  Obs_111         1   32   99   0.000   0.000        0
   113  Obs_112         1   33   99   0.000   0.000        0
   114  Obs_113         1   27  100   0.000   0.000        0
   115  Obs_114         1   29  101   0.000   0.000        0
   116  Obs_115         1    6  107   0.000   0.000        0
   117  Obs_116         1   34  107   0.000   0.000        0
   118  Obs_117         1   56  107   0.000   0.000        0
   119  Obs_118         1   66  107   0.000   0.000        0
   120  Obs_119         1   76  107   0.000   0.000        0
   121  Obs_120         1   86  107   0.000   0.000        0
   122  Obs_121         1   96  107   0.000   0.000        0
   123  Obs_122         1   42  110   0.000   0.000        0
   124  Obs_123         1   41  112   0.000   0.000        0
   125  Obs_124         1   34  114   0.000   0.000        0
   126  Obs_125         1    6  117   0.000   0.000        0
   127  Obs_126         1   56  117   0.000   0.000        0
   128  Obs_127         1   66  117   0.000   0.000        0
   129  Obs_128         1   76  117   0.000   0.000        0
   130  Obs_129         1   86  117   0.000   0.000        0
   131  Obs_130         1   96  117   0.000   0.000        0
   132  Obs_131         1   17  122   0.000   0.000        0
   133  Obs_132         1   17  123   0.000   0.000        0
   134  Obs_133         1    6  127   0.000   0.000        0
   135  Obs_134         1   26  127   0.000   0.000        0
   136  Obs_135         1   27  127   0.000   0.000        0
   137  Obs_136         1   46  127   0.000   0.000        0
   138  Obs_137         1   56  127   0.000   0.000        0
   139  Obs_138         1   66  127   0.000   0.000        0
   140  Obs_139         1   76  127   0.000   0.000        0
   141  Obs_140         1   86  127   0.000   0.000        0
   142  Obs_141         1   96  127   0.000   0.000        0
   143  Obs_142         1   27  128   0.000   0.000        0
   144  Obs_143         1   36  133   0.000   0.000        0
   145  Obs_144         1   37  133   0.000   0.000        0
   146  Obs_145         1    6  137   0.000   0.000        0
   147  Obs_146         1   16  137   0.000   0.000        0
   148  Obs_147         1   46  137   0.000   0.000        0
   149  Obs_148         1   56  137   0.000   0.000        0
   150  Obs_149         1   66  137   0.000   0.000        0
   151  Obs_150         1   76  137   0.000   0.000        0
   152  Obs_151         1   86  137   0.000   0.000        0
   153  Obs_152         1   96  137   0.000   0.000        0
   154  Obs_153         1    6  147   0.000   0.000        0
   155  Obs_154         1   36  147   0.000   0.000        0
   156  Obs_155         1   46  147   0.000   0.000        0
   157  Obs_156         1   56  147   0.000   0.000        0
   158  Obs_157         1   66  147   0.000   0.000        0
   159  Obs_158         1   76  147   0.000   0.000        0
   160  Obs_159         1   86  147   0.000   0.000        0
   161  Obs_160         1   96  147   0.000   0.000        0
   162  Obs_161         1    6  157   0.000   0.000        0
   163  Obs_162         1   36  157   0.000   0.000        0
   164  Obs_163         1   46  157   0.000   0.000        0
   165  Obs_164         1   56  157   0.000   0.000        0
   166  Obs_165         1   66  157   0.000   0.000        0
   167  Obs_166         1   76  157   0.000   0.000        0
   168  Obs_167         1   86  157   0.000   0.000        0
   169  Obs_168         1   96  157   0.000   0.000        0
   170  Obs_169         1    6  167   0.000   0.000        0
   171  Obs_170         1   16  167   0.000   0.000        0
   172  Obs_171         1   46  167   0.000   0.000        0
   173  Obs_172         1   56  167   0.000   0.000        0
   174  Obs_173         1   66  167   0.000   0.000        0
   175  Obs_174         1   76  167   0.000   0.000        0
   176  Obs_175         1   86  167   0.000   0.000        0
   177  Obs_176         1   96  167   0.000   0.000        0
   178  Obs_177         1   19  169   0.000   0.000        0
   179  Obs_178         1   30  174   0.000   0.000        0
   180  Obs_179         1    6  177   0.000   0.000        0
   181  Obs_180         1   36  177   0.000   0.000        0
   182  Obs_181         1   46  177   0.000   0.000        0
   183  Obs_182         1   56  177   0.000   0.000        0
   184  Obs_183         1   66  177   0.000   0.000        0
   185  Obs_184         1   76  177   0.000   0.000        0
   186  Obs_185         1   86  177   0.000   0.000        0
   187  Obs_186         1   96  177   0.000   0.000        0
   188  Obs_187         1   16  186   0.000   0.000        0
   189  Obs_188         1    6  187   0.000   0.000        0
   190  Obs_189         1   15  187   0.000   0.000        0
   191  Obs_190         1   36  187   0.000   0.000        0
   192  Obs_191         1   46  187   0.000   0.000        0
   193  Obs_192         1   56  187   0.000   0.000        0
   194  Obs_193         1   66  187   0.000   0.000        0
   195  Obs_194         1   76  187   0.000   0.000        0
   196  Obs_195         1   86  187   0.000   0.000        0
   197  Obs_196         1   96  187   0.000   0.000        0
   198  Obs_197         1   24  188   0.000   0.000        0
   199  Obs_198         1    6  197   0.000   0.000        0
   200  Obs_199         1   16  197   0.000   0.000        0
   201  Obs_200         1   26  197   0.000   0.000        0
   202  Obs_201         1   36  197   0.000   0.000        0
   203  Obs_202         1   46  197   0.000   0.000        0
   204  Obs_203         1   56  197   0.000   0.000        0
   205  Obs_204         1   66  197   0.000   0.000        0
   206  Obs_205         1   76  197   0.000   0.000        0
   207  Obs_206         1   86  197   0.000   0.000        0
   208  Obs_207         1   96  197   0.000   0.000        0
1
                            STRESS PERIOD NO.    1, LENGTH =   36525.00    
                            -----------------------------------------------

                              NUMBER OF TIME STEPS =   100

                               MULTIPLIER FOR DELT =     1.000

                            INITIAL TIME STEP SIZE =   365.2500    

 BOUND. NO. LAYER   ROW   COL     STAGE      CONDUCTANCE         
 ----------------------------------------------------------------
      1      1      2     90      0.1000E-01       62.50    
      2      1      2     91      0.1000E-01       62.50    
      3      1      2     92      0.1000E-01       62.50    
      4      1      2     93      0.1000E-01       62.50    
      5      1      2     94      0.1000E-01       62.50    
      6      1      2     95      0.1000E-01       62.50    
      7      1      2     96      0.1000E-01       62.50    
      8      1      2     97      0.1000E-01       62.50    
      9      1      2     98      0.1000E-01       62.50    
     10      1      2     99      0.1000E-01       62.50    
     11      1      2    100      0.1000E-01       62.50    
     12      1      2    101      0.1000E-01       62.50    
     13      1      2    102      0.1000E-01       62.50    
     14      1      2    103      0.1000E-01       62.50    
     15      1      2    104      0.1000E-01       62.50    
     16      1      2    105      0.1000E-01       62.50    
     17      1      2    106      0.1000E-01       62.50    
     18      1      2    107      0.1000E-01       62.50    
     19      1      2    108      0.1000E-01       62.50    
     20      1      2    109      0.1000E-01       62.50    
     21      1      2    110      0.1000E-01       62.50    
     22      1      2    111      0.1000E-01       62.50    
     23      1      2    112      0.1000E-01       62.50    
     24      1      2    113      0.1000E-01       62.50    
     25      1      2    114      0.1000E-01       62.50    
     26      1      2    115      0.1000E-01       62.50    
     27      1      2    116      0.1000E-01       62.50    
     28      1      2    117      0.1000E-01       62.50    
     29      1      2    118      0.1000E-01       62.50    
     30      1      2    119      0.1000E-01       62.50    
     31      1      2    120      0.1000E-01       62.50    
     32      1      2    121      0.1000E-01       62.50    
     33      1      2    122      0.1000E-01       62.50    
     34      1      2    123      0.1000E-01       62.50    
     35      1      2    124      0.1000E-01       62.50    
     36      1      2    125      0.1000E-01       62.50    
     37      1      2    126      0.1000E-01       62.50    
     38      1      2    127      0.1000E-01       62.50    
     39      1      2    128      0.1000E-01       62.50    
     40      1      2    129      0.1000E-01       62.50    
     41      1      2    130      0.1000E-01       62.50    
     42      1      2    131      0.1000E-01       62.50    
     43      1      2    132      0.1000E-01       62.50    
     44      1      2    133      0.1000E-01       62.50    
     45      1      2    134      0.1000E-01       62.50    
     46      1      2    135      0.1000E-01       62.50    
     47      1      2    136      0.1000E-01       62.50    
     48      1      2    137      0.1000E-01       62.50    
     49      1      2    138      0.1000E-01       62.50    
     50      1      2    139      0.1000E-01       62.50    
     51      1      2    140      0.1000E-01       62.50    
     52      1      2    141      0.1000E-01       62.50    
     53      1      2    142      0.1000E-01       62.50    
     54      1      2    143      0.1000E-01       62.50    
     55      1      2    144      0.1000E-01       62.50    
     56      1      2    145      0.1000E-01       62.50    
     57      1      2    146      0.1000E-01       62.50    
     58      1      2    147      0.1000E-01       62.50    
     59      1      2    148      0.1000E-01       62.50    
     60      1      2    149      0.1000E-01       62.50    
     61      1      2    150      0.1000E-01       62.50    
     62      1      2    151      0.1000E-01       62.50    
     63      1      2    152      0.1000E-01       62.50    
     64      1      2    153      0.1000E-01       62.50    
     65      1      2    154      0.1000E-01       62.50    
     66      1      2    155      0.1000E-01       62.50    
     67      1      2    156      0.1000E-01       62.50    
     68      1      2    157      0.1000E-01       62.50    
     69      1      2    158      0.1000E-01       62.50    
     70      1      2    159      0.1000E-01       62.50    
     71      1      2    160      0.1000E-01       62.50    
     72      1      2    161      0.1000E-01       62.50    
     73      1      2    162      0.1000E-01       62.50    
     74      1      2    163      0.1000E-01       62.50    
     75      1      2    164      0.1000E-01       62.50    
     76      1      2    165      0.1000E-01       62.50    
     77      1      2    166      0.1000E-01       62.50    
     78      1      2    167      0.1000E-01       62.50    
     79      1      2    168      0.1000E-01       62.50    
     80      1      2    169      0.1000E-01       62.50    
     81      1      2    170      0.1000E-01       62.50    
     82      1      2    171      0.1000E-01       62.50    
     83      1      2    172      0.1000E-01       62.50    
     84      1      2    173      0.1000E-01       62.50    
     85      1      2    174      0.1000E-01       62.50    
     86      1      2    175      0.1000E-01       62.50    
     87      1      2    176      0.1000E-01       62.50    
     88      1      2    177      0.1000E-01       62.50    
     89      1      2    178      0.1000E-01       62.50    
     90      1      2    179      0.1000E-01       62.50    
     91      1      2    180      0.1000E-01       62.50    
     92      1      2    181      0.1000E-01       62.50    
     93      1      2    182      0.1000E-01       62.50    
     94      1      2    183      0.1000E-01       62.50    
     95      1      2    184      0.1000E-01       62.50    
     96      1      2    185      0.1000E-01       62.50    
     97      1      2    186      0.1000E-01       62.50    
     98      1      2    187      0.1000E-01       62.50    
     99      1      2    188      0.1000E-01       62.50    
    100      1      2    189      0.1000E-01       62.50    
    101      1      2    190      0.1000E-01       62.50    
    102      1      2    191      0.1000E-01       62.50    
    103      1      2    192      0.1000E-01       62.50    
    104      1      2    193      0.1000E-01       62.50    
    105      1      2    194      0.1000E-01       62.50    
    106      1      2    195      0.1000E-01       62.50    
    107      1      2    196      0.1000E-01       62.50    
    108      1      2    197      0.1000E-01       62.50    
    109      1      2    198      0.1000E-01       62.50    
    110      1      2    199      0.1000E-01       62.50    
    111      1      3     89      0.1000E-01       62.50    
    112      1      3     90      0.1000E-01       62.50    
    113      1      3     91      0.1000E-01       62.50    
    114      1      3     92      0.1000E-01       62.50    
    115      1      3     93      0.1000E-01       62.50    
    116      1      3     94      0.1000E-01       62.50    
    117      1      3     95      0.1000E-01       62.50    
    118      1      3     96      0.1000E-01       62.50    
    119      1      3     97      0.1000E-01       62.50    
    120      1      3     98      0.1000E-01       62.50    
    121      1      3     99      0.1000E-01       62.50    
    122      1      3    100      0.1000E-01       62.50    
    123      1      3    101      0.1000E-01       62.50    
    124      1      3    102      0.1000E-01       62.50    
    125      1      3    103      0.1000E-01       62.50    
    126      1      3    104      0.1000E-01       62.50    
    127      1      3    105      0.1000E-01       62.50    
    128      1      3    106      0.1000E-01       62.50    
    129      1      3    107      0.1000E-01       62.50    
    130      1      3    108      0.1000E-01       62.50    
    131      1      3    109      0.1000E-01       62.50    
    132      1      3    110      0.1000E-01       62.50    
    133      1      3    111      0.1000E-01       62.50    
    134      1      3    112      0.1000E-01       62.50    
    135      1      3    113      0.1000E-01       62.50    
    136      1      3    114      0.1000E-01       62.50    
    137      1      3    115      0.1000E-01       62.50    
    138      1      3    116      0.1000E-01       62.50    
    139      1      3    117      0.1000E-01       62.50    
    140      1      3    118      0.1000E-01       62.50    
    141      1      3    119      0.1000E-01       62.50    
    142      1      3    120      0.1000E-01       62.50    
    143      1      3    121      0.1000E-01       62.50    
    144      1      3    122      0.1000E-01       62.50    
    145      1      3    123      0.1000E-01       62.50    
    146      1      3    124      0.1000E-01       62.50    
    147      1      3    125      0.1000E-01       62.50    
    148      1      3    126      0.1000E-01       62.50    
    149      1      3    127      0.1000E-01       62.50    
    150      1      3    128      0.1000E-01       62.50    
    151      1      3    129      0.1000E-01       62.50    
    152      1      3    130      0.1000E-01       62.50    
    153      1      3    131      0.1000E-01       62.50    
    154      1      3    132      0.1000E-01       62.50    
    155      1      3    133      0.1000E-01       62.50    
    156      1      3    134      0.1000E-01       62.50    
    157      1      3    135      0.1000E-01       62.50    
    158      1      3    136      0.1000E-01       62.50    
    159      1      3    137      0.1000E-01       62.50    
    160      1      3    138      0.1000E-01       62.50    
    161      1      3    139      0.1000E-01       62.50    
    162      1      3    140      0.1000E-01       62.50    
    163      1      3    141      0.1000E-01       62.50    
    164      1      3    142      0.1000E-01       62.50    
    165      1      3    143      0.1000E-01       62.50    
    166      1      3    144      0.1000E-01       62.50    
    167      1      3    145      0.1000E-01       62.50    
    168      1      3    146      0.1000E-01       62.50    
    169      1      3    147      0.1000E-01       62.50    
    170      1      3    148      0.1000E-01       62.50    
    171      1      3    149      0.1000E-01       62.50    
    172      1      3    150      0.1000E-01       62.50    
    173      1      3    151      0.1000E-01       62.50    
    174      1      3    152      0.1000E-01       62.50    
    175      1      3    153      0.1000E-01       62.50    
    176      1      3    154      0.1000E-01       62.50    
    177      1      3    155      0.1000E-01       62.50    
    178      1      3    156      0.1000E-01       62.50    
    179      1      3    157      0.1000E-01       62.50    
    180      1      3    158      0.1000E-01       62.50    
    181      1      3    159      0.1000E-01       62.50    
    182      1      3    160      0.1000E-01       62.50    
    183      1      3    161      0.1000E-01       62.50    
    184      1      3    162      0.1000E-01       62.50    
    185      1      3    163      0.1000E-01       62.50    
    186      1      3    164      0.1000E-01       62.50    
    187      1      3    165      0.1000E-01       62.50    
    188      1      3    166      0.1000E-01       62.50    
    189      1      3    167      0.1000E-01       62.50    
    190      1      3    168      0.1000E-01       62.50    
    191      1      3    169      0.1000E-01       62.50    
    192      1      3    170      0.1000E-01       62.50    
    193      1      3    171      0.1000E-01       62.50    
    194      1      3    172      0.1000E-01       62.50    
    195      1      3    173      0.1000E-01       62.50    
    196      1      3    174      0.1000E-01       62.50    
    197      1      3    175      0.1000E-01       62.50    
    198      1      3    176      0.1000E-01       62.50    
    199      1      3    177      0.1000E-01       62.50    
    200      1      3    178      0.1000E-01       62.50    
    201      1      3    179      0.1000E-01       62.50    
    202      1      3    180      0.1000E-01       62.50    
    203      1      3    181      0.1000E-01       62.50    
    204      1      3    182      0.1000E-01       62.50    
    205      1      3    183      0.1000E-01       62.50    
    206      1      3    184      0.1000E-01       62.50    
    207      1      3    185      0.1000E-01       62.50    
    208      1      3    186      0.1000E-01       62.50    
    209      1      3    187      0.1000E-01       62.50    
    210      1      3    188      0.1000E-01       62.50    
    211      1      3    189      0.1000E-01       62.50    
    212      1      3    190      0.1000E-01       62.50    
    213      1      3    191      0.1000E-01       62.50    
    214      1      3    192      0.1000E-01       62.50    
    215      1      3    193      0.1000E-01       62.50    
    216      1      3    194      0.1000E-01       62.50    
    217      1      3    195      0.1000E-01       62.50    
    218      1      3    196      0.1000E-01       62.50    
    219      1      3    197      0.1000E-01       62.50    
    220      1      3    198      0.1000E-01       62.50    
    221      1      3    199      0.1000E-01       62.50    
    222      1      4     89      0.1000E-01       62.50    
    223      1      4     90      0.1000E-01       62.50    
    224      1      4     91      0.1000E-01       62.50    
    225      1      4     92      0.1000E-01       62.50    
    226      1      4     93      0.1000E-01       62.50    
    227      1      4     94      0.1000E-01       62.50    
    228      1      4     95      0.1000E-01       62.50    
    229      1      4     96      0.1000E-01       62.50    
    230      1      4     97      0.1000E-01       62.50    
    231      1      4     98      0.1000E-01       62.50    
    232      1      4     99      0.1000E-01       62.50    
    233      1      4    100      0.1000E-01       62.50    
    234      1      4    101      0.1000E-01       62.50    
    235      1      4    102      0.1000E-01       62.50    
    236      1      4    103      0.1000E-01       62.50    
    237      1      4    104      0.1000E-01       62.50    
    238      1      4    105      0.1000E-01       62.50    
    239      1      4    106      0.1000E-01       62.50    
    240      1      4    107      0.1000E-01       62.50    
    241      1      4    108      0.1000E-01       62.50    
    242      1      4    109      0.1000E-01       62.50    
    243      1      4    110      0.1000E-01       62.50    
    244      1      4    111      0.1000E-01       62.50    
    245      1      4    112      0.1000E-01       62.50    
    246      1      4    113      0.1000E-01       62.50    
    247      1      4    114      0.1000E-01       62.50    
    248      1      4    115      0.1000E-01       62.50    
    249      1      4    116      0.1000E-01       62.50    
    250      1      4    117      0.1000E-01       62.50    
    251      1      4    118      0.1000E-01       62.50    
    252      1      4    119      0.1000E-01       62.50    
    253      1      4    120      0.1000E-01       62.50    
    254      1      4    121      0.1000E-01       62.50    
    255      1      4    122      0.1000E-01       62.50    
    256      1      4    123      0.1000E-01       62.50    
    257      1      4    124      0.1000E-01       62.50    
    258      1      4    125      0.1000E-01       62.50    
    259      1      4    126      0.1000E-01       62.50    
    260      1      4    127      0.1000E-01       62.50    
    261      1      4    128      0.1000E-01       62.50    
    262      1      4    129      0.1000E-01       62.50    
    263      1      4    130      0.1000E-01       62.50    
    264      1      4    131      0.1000E-01       62.50    
    265      1      4    132      0.1000E-01       62.50    
    266      1      4    133      0.1000E-01       62.50    
    267      1      4    134      0.1000E-01       62.50    
    268      1      4    135      0.1000E-01       62.50    
    269      1      4    136      0.1000E-01       62.50    
    270      1      4    137      0.1000E-01       62.50    
    271      1      4    138      0.1000E-01       62.50    
    272      1      4    139      0.1000E-01       62.50    
    273      1      4    140      0.1000E-01       62.50    
    274      1      4    141      0.1000E-01       62.50    
    275      1      4    142      0.1000E-01       62.50    
    276      1      4    143      0.1000E-01       62.50    
    277      1      4    144      0.1000E-01       62.50    
    278      1      4    145      0.1000E-01       62.50    
    279      1      4    146      0.1000E-01       62.50    
    280      1      4    147      0.1000E-01       62.50    
    281      1      4    148      0.1000E-01       62.50    
    282      1      4    149      0.1000E-01       62.50    
    283      1      4    150      0.1000E-01       62.50    
    284      1      4    151      0.1000E-01       62.50    
    285      1      4    152      0.1000E-01       62.50    
    286      1      4    153      0.1000E-01       62.50    
    287      1      4    154      0.1000E-01       62.50    
    288      1      4    155      0.1000E-01       62.50    
    289      1      4    156      0.1000E-01       62.50    
    290      1      4    157      0.1000E-01       62.50    
    291      1      4    158      0.1000E-01       62.50    
    292      1      4    159      0.1000E-01       62.50    
    293      1      4    160      0.1000E-01       62.50    
    294      1      4    161      0.1000E-01       62.50    
    295      1      4    162      0.1000E-01       62.50    
    296      1      4    163      0.1000E-01       62.50    
    297      1      4    164      0.1000E-01       62.50    
    298      1      4    165      0.1000E-01       62.50    
    299      1      4    166      0.1000E-01       62.50    
    300      1      4    167      0.1000E-01       62.50    
    301      1      4    168      0.1000E-01       62.50    
    302      1      4    169      0.1000E-01       62.50    
    303      1      4    170      0.1000E-01       62.50    
    304      1      4    171      0.1000E-01       62.50    
    305      1      4    172      0.1000E-01       62.50    
    306      1      4    173      0.1000E-01       62.50    
    307      1      4    174      0.1000E-01       62.50    
    308      1      4    175      0.1000E-01       62.50    
    309      1      4    176      0.1000E-01       62.50    
    310      1      4    177      0.1000E-01       62.50    
    311      1      4    178      0.1000E-01       62.50    
    312      1      4    179      0.1000E-01       62.50    
    313      1      4    180      0.1000E-01       62.50    
    314      1      4    181      0.1000E-01       62.50    
    315      1      4    182      0.1000E-01       62.50    
    316      1      4    183      0.1000E-01       62.50    
    317      1      4    184      0.1000E-01       62.50    
    318      1      4    185      0.1000E-01       62.50    
    319      1      4    186      0.1000E-01       62.50    
    320      1      4    187      0.1000E-01       62.50    
    321      1      4    188      0.1000E-01       62.50    
    322      1      4    189      0.1000E-01       62.50    
    323      1      4    190      0.1000E-01       62.50    
    324      1      4    191      0.1000E-01       62.50    
    325      1      4    192      0.1000E-01       62.50    
    326      1      4    193      0.1000E-01       62.50    
    327      1      4    194      0.1000E-01       62.50    
    328      1      4    195      0.1000E-01       62.50    
    329      1      4    196      0.1000E-01       62.50    
    330      1      4    197      0.1000E-01       62.50    
    331      1      4    198      0.1000E-01       62.50    
    332      1      4    199      0.1000E-01       62.50    
    333      1      5     88      0.1000E-01       62.50    
    334      1      5     89      0.1000E-01       62.50    
    335      1      5     90      0.1000E-01       62.50    
    336      1      5     91      0.1000E-01       62.50    
    337      1      5     92      0.1000E-01       62.50    
    338      1      5     93      0.1000E-01       62.50    
    339      1      5     94      0.1000E-01       62.50    
    340      1      5     95      0.1000E-01       62.50    
    341      1      5     96      0.1000E-01       62.50    
    342      1      5     97      0.1000E-01       62.50    
    343      1      5     98      0.1000E-01       62.50    
    344      1      5     99      0.1000E-01       62.50    
    345      1      5    100      0.1000E-01       62.50    
    346      1      5    101      0.1000E-01       62.50    
    347      1      5    102      0.1000E-01       62.50    
    348      1      5    103      0.1000E-01       62.50    
    349      1      5    104      0.1000E-01       62.50    
    350      1      5    105      0.1000E-01       62.50    
    351      1      5    106      0.1000E-01       62.50    
    352      1      5    107      0.1000E-01       62.50    
    353      1      5    108      0.1000E-01       62.50    
    354      1      5    109      0.1000E-01       62.50    
    355      1      5    110      0.1000E-01       62.50    
    356      1      5    111      0.1000E-01       62.50    
    357      1      5    112      0.1000E-01       62.50    
    358      1      5    113      0.1000E-01       62.50    
    359      1      5    114      0.1000E-01       62.50    
    360      1      5    115      0.1000E-01       62.50    
    361      1      5    116      0.1000E-01       62.50    
    362      1      5    117      0.1000E-01       62.50    
    363      1      5    118      0.1000E-01       62.50    
    364      1      5    119      0.1000E-01       62.50    
    365      1      5    120      0.1000E-01       62.50    
    366      1      5    121      0.1000E-01       62.50    
    367      1      5    122      0.1000E-01       62.50    
    368      1      5    123      0.1000E-01       62.50    
    369      1      5    124      0.1000E-01       62.50    
    370      1      5    125      0.1000E-01       62.50    
    371      1      5    126      0.1000E-01       62.50    
    372      1      5    127      0.1000E-01       62.50    
    373      1      5    128      0.1000E-01       62.50    
    374      1      5    129      0.1000E-01       62.50    
    375      1      5    130      0.1000E-01       62.50    
    376      1      5    131      0.1000E-01       62.50    
    377      1      5    132      0.1000E-01       62.50    
    378      1      5    133      0.1000E-01       62.50    
    379      1      5    134      0.1000E-01       62.50    
    380      1      5    135      0.1000E-01       62.50    
    381      1      5    136      0.1000E-01       62.50    
    382      1      5    137      0.1000E-01       62.50    
    383      1      5    138      0.1000E-01       62.50    
    384      1      5    139      0.1000E-01       62.50    
    385      1      5    140      0.1000E-01       62.50    
    386      1      5    141      0.1000E-01       62.50    
    387      1      5    142      0.1000E-01       62.50    
    388      1      5    143      0.1000E-01       62.50    
    389      1      5    144      0.1000E-01       62.50    
    390      1      5    145      0.1000E-01       62.50    
    391      1      5    146      0.1000E-01       62.50    
    392      1      5    147      0.1000E-01       62.50    
    393      1      5    148      0.1000E-01       62.50    
    394      1      5    149      0.1000E-01       62.50    
    395      1      5    150      0.1000E-01       62.50    
    396      1      5    151      0.1000E-01       62.50    
    397      1      5    152      0.1000E-01       62.50    
    398      1      5    153      0.1000E-01       62.50    
    399      1      5    154      0.1000E-01       62.50    
    400      1      5    155      0.1000E-01       62.50    
    401      1      5    156      0.1000E-01       62.50    
    402      1      5    157      0.1000E-01       62.50    
    403      1      5    158      0.1000E-01       62.50    
    404      1      5    159      0.1000E-01       62.50    
    405      1      5    160      0.1000E-01       62.50    
    406      1      5    161      0.1000E-01       62.50    
    407      1      5    162      0.1000E-01       62.50    
    408      1      5    163      0.1000E-01       62.50    
    409      1      5    164      0.1000E-01       62.50    
    410      1      5    165      0.1000E-01       62.50    
    411      1      5    166      0.1000E-01       62.50    
    412      1      5    167      0.1000E-01       62.50    
    413      1      5    168      0.1000E-01       62.50    
    414      1      5    169      0.1000E-01       62.50    
    415      1      5    170      0.1000E-01       62.50    
    416      1      5    171      0.1000E-01       62.50    
    417      1      5    172      0.1000E-01       62.50    
    418      1      5    173      0.1000E-01       62.50    
    419      1      5    174      0.1000E-01       62.50    
    420      1      5    175      0.1000E-01       62.50    
    421      1      5    176      0.1000E-01       62.50    
    422      1      5    177      0.1000E-01       62.50    
    423      1      5    178      0.1000E-01       62.50    
    424      1      5    179      0.1000E-01       62.50    
    425      1      5    180      0.1000E-01       62.50    
    426      1      5    181      0.1000E-01       62.50    
    427      1      5    182      0.1000E-01       62.50    
    428      1      5    183      0.1000E-01       62.50    
    429      1      5    184      0.1000E-01       62.50    
    430      1      5    185      0.1000E-01       62.50    
    431      1      5    186      0.1000E-01       62.50    
    432      1      5    187      0.1000E-01       62.50    
    433      1      5    188      0.1000E-01       62.50    
    434      1      5    189      0.1000E-01       62.50    
    435      1      5    190      0.1000E-01       62.50    
    436      1      5    191      0.1000E-01       62.50    
    437      1      5    192      0.1000E-01       62.50    
    438      1      5    193      0.1000E-01       62.50    
    439      1      5    194      0.1000E-01       62.50    
    440      1      5    195      0.1000E-01       62.50    
    441      1      5    196      0.1000E-01       62.50    
    442      1      5    197      0.1000E-01       62.50    
    443      1      5    198      0.1000E-01       62.50    
    444      1      5    199      0.1000E-01       62.50    
    445      1      6     87      0.1000E-01       62.50    
    446      1      6     88      0.1000E-01       62.50    
    447      1      6     89      0.1000E-01       62.50    
    448      1      6     90      0.1000E-01       62.50    
    449      1      6     91      0.1000E-01       62.50    
    450      1      6     92      0.1000E-01       62.50    
    451      1      6     93      0.1000E-01       62.50    
    452      1      6     94      0.1000E-01       62.50    
    453      1      6     95      0.1000E-01       62.50    
    454      1      6     96      0.1000E-01       62.50    
    455      1      6     97      0.1000E-01       62.50    
    456      1      6     98      0.1000E-01       62.50    
    457      1      6     99      0.1000E-01       62.50    
    458      1      6    100      0.1000E-01       62.50    
    459      1      6    101      0.1000E-01       62.50    
    460      1      6    102      0.1000E-01       62.50    
    461      1      6    103      0.1000E-01       62.50    
    462      1      6    104      0.1000E-01       62.50    
    463      1      6    105      0.1000E-01       62.50    
    464      1      6    106      0.1000E-01       62.50    
    465      1      6    107      0.1000E-01       62.50    
    466      1      6    108      0.1000E-01       62.50    
    467      1      6    109      0.1000E-01       62.50    
    468      1      6    110      0.1000E-01       62.50    
    469      1      6    111      0.1000E-01       62.50    
    470      1      6    112      0.1000E-01       62.50    
    471      1      6    113      0.1000E-01       62.50    
    472      1      6    114      0.1000E-01       62.50    
    473      1      6    115      0.1000E-01       62.50    
    474      1      6    116      0.1000E-01       62.50    
    475      1      6    117      0.1000E-01       62.50    
    476      1      6    118      0.1000E-01       62.50    
    477      1      6    119      0.1000E-01       62.50    
    478      1      6    121      0.1000E-01       62.50    
    479      1      6    122      0.1000E-01       62.50    
    480      1      6    123      0.1000E-01       62.50    
    481      1      6    124      0.1000E-01       62.50    
    482      1      6    125      0.1000E-01       62.50    
    483      1      6    126      0.1000E-01       62.50    
    484      1      6    127      0.1000E-01       62.50    
    485      1      6    128      0.1000E-01       62.50    
    486      1      6    129      0.1000E-01       62.50    
    487      1      6    130      0.1000E-01       62.50    
    488      1      6    131      0.1000E-01       62.50    
    489      1      6    132      0.1000E-01       62.50    
    490      1      6    133      0.1000E-01       62.50    
    491      1      6    134      0.1000E-01       62.50    
    492      1      6    135      0.1000E-01       62.50    
    493      1      6    136      0.1000E-01       62.50    
    494      1      6    137      0.1000E-01       62.50    
    495      1      6    138      0.1000E-01       62.50    
    496      1      6    139      0.1000E-01       62.50    
    497      1      6    140      0.1000E-01       62.50    
    498      1      6    141      0.1000E-01       62.50    
    499      1      6    142      0.1000E-01       62.50    
    500      1      6    143      0.1000E-01       62.50    
    501      1      6    144      0.1000E-01       62.50    
    502      1      6    145      0.1000E-01       62.50    
    503      1      6    146      0.1000E-01       62.50    
    504      1      6    147      0.1000E-01       62.50    
    505      1      6    148      0.1000E-01       62.50    
    506      1      6    149      0.1000E-01       62.50    
    507      1      6    150      0.1000E-01       62.50    
    508      1      6    151      0.1000E-01       62.50    
    509      1      6    152      0.1000E-01       62.50    
    510      1      6    153      0.1000E-01       62.50    
    511      1      6    154      0.1000E-01       62.50    
    512      1      6    155      0.1000E-01       62.50    
    513      1      6    156      0.1000E-01       62.50    
    514      1      6    157      0.1000E-01       62.50    
    515      1      6    158      0.1000E-01       62.50    
    516      1      6    159      0.1000E-01       62.50    
    517      1      6    160      0.1000E-01       62.50    
    518      1      6    161      0.1000E-01       62.50    
    519      1      6    162      0.1000E-01       62.50    
    520      1      6    163      0.1000E-01       62.50    
    521      1      6    164      0.1000E-01       62.50    
    522      1      6    165      0.1000E-01       62.50    
    523      1      6    166      0.1000E-01       62.50    
    524      1      6    167      0.1000E-01       62.50    
    525      1      6    168      0.1000E-01       62.50    
    526      1      6    169      0.1000E-01       62.50    
    527      1      6    170      0.1000E-01       62.50    
    528      1      6    171      0.1000E-01       62.50    
    529      1      6    172      0.1000E-01       62.50    
    530      1      6    173      0.1000E-01       62.50    
    531      1      6    174      0.1000E-01       62.50    
    532      1      6    175      0.1000E-01       62.50    
    533      1      6    176      0.1000E-01       62.50    
    534      1      6    177      0.1000E-01       62.50    
    535      1      6    178      0.1000E-01       62.50    
    536      1      6    179      0.1000E-01       62.50    
    537      1      6    180      0.1000E-01       62.50    
    538      1      6    181      0.1000E-01       62.50    
    539      1      6    182      0.1000E-01       62.50    
    540      1      6    183      0.1000E-01       62.50    
    541      1      6    184      0.1000E-01       62.50    
    542      1      6    185      0.1000E-01       62.50    
    543      1      6    186      0.1000E-01       62.50    
    544      1      6    187      0.1000E-01       62.50    
    545      1      6    188      0.1000E-01       62.50    
    546      1      6    189      0.1000E-01       62.50    
    547      1      6    190      0.1000E-01       62.50    
    548      1      6    191      0.1000E-01       62.50    
    549      1      6    192      0.1000E-01       62.50    
    550      1      6    193      0.1000E-01       62.50    
    551      1      6    194      0.1000E-01       62.50    
    552      1      6    195      0.1000E-01       62.50    
    553      1      6    196      0.1000E-01       62.50    
    554      1      6    197      0.1000E-01       62.50    
    555      1      6    198      0.1000E-01       62.50    
    556      1      6    199      0.1000E-01       62.50    
    557      1      7     87      0.1000E-01       62.50    
    558      1      7     88      0.1000E-01       62.50    
    559      1      7     89      0.1000E-01       62.50    
    560      1      7     90      0.1000E-01       62.50    
    561      1      7     91      0.1000E-01       62.50    
    562      1      7     92      0.1000E-01       62.50    
    563      1      7     93      0.1000E-01       62.50    
    564      1      7     94      0.1000E-01       62.50    
    565      1      7     95      0.1000E-01       62.50    
    566      1      7     96      0.1000E-01       62.50    
    567      1      7     97      0.1000E-01       62.50    
    568      1      7     98      0.1000E-01       62.50    
    569      1      7     99      0.1000E-01       62.50    
    570      1      7    100      0.1000E-01       62.50    
    571      1      7    101      0.1000E-01       62.50    
    572      1      7    102      0.1000E-01       62.50    
    573      1      7    103      0.1000E-01       62.50    
    574      1      7    104      0.1000E-01       62.50    
    575      1      7    105      0.1000E-01       62.50    
    576      1      7    106      0.1000E-01       62.50    
    577      1      7    107      0.1000E-01       62.50    
    578      1      7    108      0.1000E-01       62.50    
    579      1      7    109      0.1000E-01       62.50    
    580      1      7    110      0.1000E-01       62.50    
    581      1      7    111      0.1000E-01       62.50    
    582      1      7    112      0.1000E-01       62.50    
    583      1      7    113      0.1000E-01       62.50    
    584      1      7    114      0.1000E-01       62.50    
    585      1      7    115      0.1000E-01       62.50    
    586      1      7    116      0.1000E-01       62.50    
    587      1      7    117      0.1000E-01       62.50    
    588      1      7    118      0.1000E-01       62.50    
    589      1      7    121      0.1000E-01       62.50    
    590      1      7    122      0.1000E-01       62.50    
    591      1      7    123      0.1000E-01       62.50    
    592      1      7    124      0.1000E-01       62.50    
    593      1      7    125      0.1000E-01       62.50    
    594      1      7    126      0.1000E-01       62.50    
    595      1      7    127      0.1000E-01       62.50    
    596      1      7    128      0.1000E-01       62.50    
    597      1      7    129      0.1000E-01       62.50    
    598      1      7    130      0.1000E-01       62.50    
    599      1      7    131      0.1000E-01       62.50    
    600      1      7    132      0.1000E-01       62.50    
    601      1      7    133      0.1000E-01       62.50    
    602      1      7    134      0.1000E-01       62.50    
    603      1      7    135      0.1000E-01       62.50    
    604      1      7    136      0.1000E-01       62.50    
    605      1      7    137      0.1000E-01       62.50    
    606      1      7    138      0.1000E-01       62.50    
    607      1      7    139      0.1000E-01       62.50    
    608      1      7    140      0.1000E-01       62.50    
    609      1      7    141      0.1000E-01       62.50    
    610      1      7    142      0.1000E-01       62.50    
    611      1      7    143      0.1000E-01       62.50    
    612      1      7    144      0.1000E-01       62.50    
    613      1      7    145      0.1000E-01       62.50    
    614      1      7    146      0.1000E-01       62.50    
    615      1      7    147      0.1000E-01       62.50    
    616      1      7    148      0.1000E-01       62.50    
    617      1      7    149      0.1000E-01       62.50    
    618      1      7    150      0.1000E-01       62.50    
    619      1      7    151      0.1000E-01       62.50    
    620      1      7    152      0.1000E-01       62.50    
    621      1      7    153      0.1000E-01       62.50    
    622      1      7    154      0.1000E-01       62.50    
    623      1      7    155      0.1000E-01       62.50    
    624      1      7    156      0.1000E-01       62.50    
    625      1      7    157      0.1000E-01       62.50    
    626      1      7    158      0.1000E-01       62.50    
    627      1      7    159      0.1000E-01       62.50    
    628      1      7    160      0.1000E-01       62.50    
    629      1      7    161      0.1000E-01       62.50    
    630      1      7    162      0.1000E-01       62.50    
    631      1      7    163      0.1000E-01       62.50    
    632      1      7    164      0.1000E-01       62.50    
    633      1      7    165      0.1000E-01       62.50    
    634      1      7    166      0.1000E-01       62.50    
    635      1      7    167      0.1000E-01       62.50    
    636      1      7    168      0.1000E-01       62.50    
    637      1      7    169      0.1000E-01       62.50    
    638      1      7    170      0.1000E-01       62.50    
    639      1      7    171      0.1000E-01       62.50    
    640      1      7    172      0.1000E-01       62.50    
    641      1      7    173      0.1000E-01       62.50    
    642      1      7    174      0.1000E-01       62.50    
    643      1      7    175      0.1000E-01       62.50    
    644      1      7    176      0.1000E-01       62.50    
    645      1      7    177      0.1000E-01       62.50    
    646      1      7    178      0.1000E-01       62.50    
    647      1      7    179      0.1000E-01       62.50    
    648      1      7    180      0.1000E-01       62.50    
    649      1      7    181      0.1000E-01       62.50    
    650      1      7    182      0.1000E-01       62.50    
    651      1      7    183      0.1000E-01       62.50    
    652      1      7    184      0.1000E-01       62.50    
    653      1      7    185      0.1000E-01       62.50    
    654      1      7    186      0.1000E-01       62.50    
    655      1      7    187      0.1000E-01       62.50    
    656      1      7    188      0.1000E-01       62.50    
    657      1      7    189      0.1000E-01       62.50    
    658      1      7    190      0.1000E-01       62.50    
    659      1      7    191      0.1000E-01       62.50    
    660      1      7    192      0.1000E-01       62.50    
    661      1      7    193      0.1000E-01       62.50    
    662      1      7    194      0.1000E-01       62.50    
    663      1      7    195      0.1000E-01       62.50    
    664      1      7    196      0.1000E-01       62.50    
    665      1      7    197      0.1000E-01       62.50    
    666      1      7    198      0.1000E-01       62.50    
    667      1      7    199      0.1000E-01       62.50    
    668      1      8     86      0.1000E-01       62.50    
    669      1      8     87      0.1000E-01       62.50    
    670      1      8     88      0.1000E-01       62.50    
    671      1      8     89      0.1000E-01       62.50    
    672      1      8     90      0.1000E-01       62.50    
    673      1      8     91      0.1000E-01       62.50    
    674      1      8     92      0.1000E-01       62.50    
    675      1      8     93      0.1000E-01       62.50    
    676      1      8     94      0.1000E-01       62.50    
    677      1      8     95      0.1000E-01       62.50    
    678      1      8     96      0.1000E-01       62.50    
    679      1      8     97      0.1000E-01       62.50    
    680      1      8     98      0.1000E-01       62.50    
    681      1      8     99      0.1000E-01       62.50    
    682      1      8    100      0.1000E-01       62.50    
    683      1      8    101      0.1000E-01       62.50    
    684      1      8    102      0.1000E-01       62.50    
    685      1      8    103      0.1000E-01       62.50    
    686      1      8    104      0.1000E-01       62.50    
    687      1      8    105      0.1000E-01       62.50    
    688      1      8    106      0.1000E-01       62.50    
    689      1      8    107      0.1000E-01       62.50    
    690      1      8    108      0.1000E-01       62.50    
    691      1      8    109      0.1000E-01       62.50    
    692      1      8    110      0.1000E-01       62.50    
    693      1      8    111      0.1000E-01       62.50    
    694      1      8    112      0.1000E-01       62.50    
    695      1      8    113      0.1000E-01       62.50    
    696      1      8    114      0.1000E-01       62.50    
    697      1      8    115      0.1000E-01       62.50    
    698      1      8    116      0.1000E-01       62.50    
    699      1      8    121      0.1000E-01       62.50    
    700      1      8    122      0.1000E-01       62.50    
    701      1      8    123      0.1000E-01       62.50    
    702      1      8    124      0.1000E-01       62.50    
    703      1      8    125      0.1000E-01       62.50    
    704      1      8    126      0.1000E-01       62.50    
    705      1      8    127      0.1000E-01       62.50    
    706      1      8    128      0.1000E-01       62.50    
    707      1      8    129      0.1000E-01       62.50    
    708      1      8    130      0.1000E-01       62.50    
    709      1      8    131      0.1000E-01       62.50    
    710      1      8    132      0.1000E-01       62.50    
    711      1      8    133      0.1000E-01       62.50    
    712      1      8    134      0.1000E-01       62.50    
    713      1      8    135      0.1000E-01       62.50    
    714      1      8    136      0.1000E-01       62.50    
    715      1      8    137      0.1000E-01       62.50    
    716      1      8    138      0.1000E-01       62.50    
    717      1      8    139      0.1000E-01       62.50    
    718      1      8    140      0.1000E-01       62.50    
    719      1      8    141      0.1000E-01       62.50    
    720      1      8    142      0.1000E-01       62.50    
    721      1      8    143      0.1000E-01       62.50    
    722      1      8    144      0.1000E-01       62.50    
    723      1      8    145      0.1000E-01       62.50    
    724      1      8    146      0.1000E-01       62.50    
    725      1      8    147      0.1000E-01       62.50    
    726      1      8    148      0.1000E-01       62.50    
    727      1      8    149      0.1000E-01       62.50    
    728      1      8    150      0.1000E-01       62.50    
    729      1      8    151      0.1000E-01       62.50    
    730      1      8    152      0.1000E-01       62.50    
    731      1      8    153      0.1000E-01       62.50    
    732      1      8    154      0.1000E-01       62.50    
    733      1      8    155      0.1000E-01       62.50    
    734      1      8    156      0.1000E-01       62.50    
    735      1      8    157      0.1000E-01       62.50    
    736      1      8    158      0.1000E-01       62.50    
    737      1      8    159      0.1000E-01       62.50    
    738      1      8    160      0.1000E-01       62.50    
    739      1      8    161      0.1000E-01       62.50    
    740      1      8    162      0.1000E-01       62.50    
    741      1      8    163      0.1000E-01       62.50    
    742      1      8    164      0.1000E-01       62.50    
    743      1      8    165      0.1000E-01       62.50    
    744      1      8    166      0.1000E-01       62.50    
    745      1      8    167      0.1000E-01       62.50    
    746      1      8    168      0.1000E-01       62.50    
    747      1      8    169      0.1000E-01       62.50    
    748      1      8    170      0.1000E-01       62.50    
    749      1      8    171      0.1000E-01       62.50    
    750      1      8    172      0.1000E-01       62.50    
    751      1      8    173      0.1000E-01       62.50    
    752      1      8    174      0.1000E-01       62.50    
    753      1      8    175      0.1000E-01       62.50    
    754      1      8    176      0.1000E-01       62.50    
    755      1      8    177      0.1000E-01       62.50    
    756      1      8    178      0.1000E-01       62.50    
    757      1      8    179      0.1000E-01       62.50    
    758      1      8    180      0.1000E-01       62.50    
    759      1      8    181      0.1000E-01       62.50    
    760      1      8    182      0.1000E-01       62.50    
    761      1      8    183      0.1000E-01       62.50    
    762      1      8    184      0.1000E-01       62.50    
    763      1      8    185      0.1000E-01       62.50    
    764      1      8    186      0.1000E-01       62.50    
    765      1      8    187      0.1000E-01       62.50    
    766      1      8    188      0.1000E-01       62.50    
    767      1      8    189      0.1000E-01       62.50    
    768      1      8    190      0.1000E-01       62.50    
    769      1      8    191      0.1000E-01       62.50    
    770      1      8    192      0.1000E-01       62.50    
    771      1      8    193      0.1000E-01       62.50    
    772      1      8    194      0.1000E-01       62.50    
    773      1      8    195      0.1000E-01       62.50    
    774      1      8    196      0.1000E-01       62.50    
    775      1      8    197      0.1000E-01       62.50    
    776      1      8    198      0.1000E-01       62.50    
    777      1      8    199      0.1000E-01       62.50    
    778      1      9     85      0.1000E-01       62.50    
    779      1      9     86      0.1000E-01       62.50    
    780      1      9     87      0.1000E-01       62.50    
    781      1      9     88      0.1000E-01       62.50    
    782      1      9     89      0.1000E-01       62.50    
    783      1      9     90      0.1000E-01       62.50    
    784      1      9     91      0.1000E-01       62.50    
    785      1      9     92      0.1000E-01       62.50    
    786      1      9     93      0.1000E-01       62.50    
    787      1      9     94      0.1000E-01       62.50    
    788      1      9     95      0.1000E-01       62.50    
    789      1      9     96      0.1000E-01       62.50    
    790      1      9     97      0.1000E-01       62.50    
    791      1      9     98      0.1000E-01       62.50    
    792      1      9     99      0.1000E-01       62.50    
    793      1      9    100      0.1000E-01       62.50    
    794      1      9    101      0.1000E-01       62.50    
    795      1      9    102      0.1000E-01       62.50    
    796      1      9    103      0.1000E-01       62.50    
    797      1      9    104      0.1000E-01       62.50    
    798      1      9    105      0.1000E-01       62.50    
    799      1      9    106      0.1000E-01       62.50    
    800      1      9    107      0.1000E-01       62.50    
    801      1      9    108      0.1000E-01       62.50    
    802      1      9    109      0.1000E-01       62.50    
    803      1      9    110      0.1000E-01       62.50    
    804      1      9    111      0.1000E-01       62.50    
    805      1      9    112      0.1000E-01       62.50    
    806      1      9    113      0.1000E-01       62.50    
    807      1      9    114      0.1000E-01       62.50    
    808      1      9    115      0.1000E-01       62.50    
    809      1      9    120      0.1000E-01       62.50    
    810      1      9    121      0.1000E-01       62.50    
    811      1      9    122      0.1000E-01       62.50    
    812      1      9    123      0.1000E-01       62.50    
    813      1      9    124      0.1000E-01       62.50    
    814      1      9    125      0.1000E-01       62.50    
    815      1      9    126      0.1000E-01       62.50    
    816      1      9    127      0.1000E-01       62.50    
    817      1      9    128      0.1000E-01       62.50    
    818      1      9    129      0.1000E-01       62.50    
    819      1      9    130      0.1000E-01       62.50    
    820      1      9    131      0.1000E-01       62.50    
    821      1      9    132      0.1000E-01       62.50    
    822      1      9    133      0.1000E-01       62.50    
    823      1      9    134      0.1000E-01       62.50    
    824      1      9    135      0.1000E-01       62.50    
    825      1      9    136      0.1000E-01       62.50    
    826      1      9    137      0.1000E-01       62.50    
    827      1      9    138      0.1000E-01       62.50    
    828      1      9    139      0.1000E-01       62.50    
    829      1      9    140      0.1000E-01       62.50    
    830      1      9    141      0.1000E-01       62.50    
    831      1      9    142      0.1000E-01       62.50    
    832      1      9    143      0.1000E-01       62.50    
    833      1      9    144      0.1000E-01       62.50    
    834      1      9    145      0.1000E-01       62.50    
    835      1      9    146      0.1000E-01       62.50    
    836      1      9    147      0.1000E-01       62.50    
    837      1      9    148      0.1000E-01       62.50    
    838      1      9    149      0.1000E-01       62.50    
    839      1      9    150      0.1000E-01       62.50    
    840      1      9    151      0.1000E-01       62.50    
    841      1      9    152      0.1000E-01       62.50    
    842      1      9    153      0.1000E-01       62.50    
    843      1      9    154      0.1000E-01       62.50    
    844      1      9    155      0.1000E-01       62.50    
    845      1      9    156      0.1000E-01       62.50    
    846      1      9    157      0.1000E-01       62.50    
    847      1      9    158      0.1000E-01       62.50    
    848      1      9    159      0.1000E-01       62.50    
    849      1      9    160      0.1000E-01       62.50    
    850      1      9    161      0.1000E-01       62.50    
    851      1      9    162      0.1000E-01       62.50    
    852      1      9    163      0.1000E-01       62.50    
    853      1      9    164      0.1000E-01       62.50    
    854      1      9    165      0.1000E-01       62.50    
    855      1      9    166      0.1000E-01       62.50    
    856      1      9    167      0.1000E-01       62.50    
    857      1      9    168      0.1000E-01       62.50    
    858      1      9    169      0.1000E-01       62.50    
    859      1      9    170      0.1000E-01       62.50    
    860      1      9    171      0.1000E-01       62.50    
    861      1      9    172      0.1000E-01       62.50    
    862      1      9    173      0.1000E-01       62.50    
    863      1      9    174      0.1000E-01       62.50    
    864      1      9    175      0.1000E-01       62.50    
    865      1      9    176      0.1000E-01       62.50    
    866      1      9    177      0.1000E-01       62.50    
    867      1      9    178      0.1000E-01       62.50    
    868      1      9    179      0.1000E-01       62.50    
    869      1      9    180      0.1000E-01       62.50    
    870      1      9    181      0.1000E-01       62.50    
    871      1      9    182      0.1000E-01       62.50    
    872      1      9    183      0.1000E-01       62.50    
    873      1      9    184      0.1000E-01       62.50    
    874      1      9    185      0.1000E-01       62.50    
    875      1      9    186      0.1000E-01       62.50    
    876      1      9    187      0.1000E-01       62.50    
    877      1      9    188      0.1000E-01       62.50    
    878      1      9    189      0.1000E-01       62.50    
    879      1      9    190      0.1000E-01       62.50    
    880      1      9    191      0.1000E-01       62.50    
    881      1      9    192      0.1000E-01       62.50    
    882      1      9    193      0.1000E-01       62.50    
    883      1      9    194      0.1000E-01       62.50    
    884      1      9    195      0.1000E-01       62.50    
    885      1      9    196      0.1000E-01       62.50    
    886      1      9    197      0.1000E-01       62.50    
    887      1      9    198      0.1000E-01       62.50    
    888      1      9    199      0.1000E-01       62.50    
    889      1     10     84      0.1000E-01       62.50    
    890      1     10     85      0.1000E-01       62.50    
    891      1     10     86      0.1000E-01       62.50    
    892      1     10     87      0.1000E-01       62.50    
    893      1     10     88      0.1000E-01       62.50    
    894      1     10     89      0.1000E-01       62.50    
    895      1     10     90      0.1000E-01       62.50    
    896      1     10     91      0.1000E-01       62.50    
    897      1     10     92      0.1000E-01       62.50    
    898      1     10     93      0.1000E-01       62.50    
    899      1     10     94      0.1000E-01       62.50    
    900      1     10     95      0.1000E-01       62.50    
    901      1     10     96      0.1000E-01       62.50    
    902      1     10     97      0.1000E-01       62.50    
    903      1     10     98      0.1000E-01       62.50    
    904      1     10     99      0.1000E-01       62.50    
    905      1     10    100      0.1000E-01       62.50    
    906      1     10    101      0.1000E-01       62.50    
    907      1     10    102      0.1000E-01       62.50    
    908      1     10    103      0.1000E-01       62.50    
    909      1     10    104      0.1000E-01       62.50    
    910      1     10    105      0.1000E-01       62.50    
    911      1     10    106      0.1000E-01       62.50    
    912      1     10    107      0.1000E-01       62.50    
    913      1     10    108      0.1000E-01       62.50    
    914      1     10    109      0.1000E-01       62.50    
    915      1     10    110      0.1000E-01       62.50    
    916      1     10    111      0.1000E-01       62.50    
    917      1     10    112      0.1000E-01       62.50    
    918      1     10    114      0.1000E-01       62.50    
    919      1     10    120      0.1000E-01       62.50    
    920      1     10    121      0.1000E-01       62.50    
    921      1     10    122      0.1000E-01       62.50    
    922      1     10    123      0.1000E-01       62.50    
    923      1     10    124      0.1000E-01       62.50    
    924      1     10    125      0.1000E-01       62.50    
    925      1     10    126      0.1000E-01       62.50    
    926      1     10    127      0.1000E-01       62.50    
    927      1     10    128      0.1000E-01       62.50    
    928      1     10    129      0.1000E-01       62.50    
    929      1     10    130      0.1000E-01       62.50    
    930      1     10    131      0.1000E-01       62.50    
    931      1     10    132      0.1000E-01       62.50    
    932      1     10    133      0.1000E-01       62.50    
    933      1     10    134      0.1000E-01       62.50    
    934      1     10    135      0.1000E-01       62.50    
    935      1     10    136      0.1000E-01       62.50    
    936      1     10    137      0.1000E-01       62.50    
    937      1     10    138      0.1000E-01       62.50    
    938      1     10    139      0.1000E-01       62.50    
    939      1     10    140      0.1000E-01       62.50    
    940      1     10    141      0.1000E-01       62.50    
    941      1     10    142      0.1000E-01       62.50    
    942      1     10    143      0.1000E-01       62.50    
    943      1     10    144      0.1000E-01       62.50    
    944      1     10    145      0.1000E-01       62.50    
    945      1     10    146      0.1000E-01       62.50    
    946      1     10    147      0.1000E-01       62.50    
    947      1     10    148      0.1000E-01       62.50    
    948      1     10    149      0.1000E-01       62.50    
    949      1     10    150      0.1000E-01       62.50    
    950      1     10    151      0.1000E-01       62.50    
    951      1     10    152      0.1000E-01       62.50    
    952      1     10    153      0.1000E-01       62.50    
    953      1     10    154      0.1000E-01       62.50    
    954      1     10    155      0.1000E-01       62.50    
    955      1     10    156      0.1000E-01       62.50    
    956      1     10    157      0.1000E-01       62.50    
    957      1     10    158      0.1000E-01       62.50    
    958      1     10    159      0.1000E-01       62.50    
    959      1     10    160      0.1000E-01       62.50    
    960      1     10    161      0.1000E-01       62.50    
    961      1     10    162      0.1000E-01       62.50    
    962      1     10    163      0.1000E-01       62.50    
    963      1     10    164      0.1000E-01       62.50    
    964      1     10    165      0.1000E-01       62.50    
    965      1     10    166      0.1000E-01       62.50    
    966      1     10    167      0.1000E-01       62.50    
    967      1     10    168      0.1000E-01       62.50    
    968      1     10    169      0.1000E-01       62.50    
    969      1     10    170      0.1000E-01       62.50    
    970      1     10    171      0.1000E-01       62.50    
    971      1     10    172      0.1000E-01       62.50    
    972      1     10    173      0.1000E-01       62.50    
    973      1     10    174      0.1000E-01       62.50    
    974      1     10    175      0.1000E-01       62.50    
    975      1     10    176      0.1000E-01       62.50    
    976      1     10    177      0.1000E-01       62.50    
    977      1     10    178      0.1000E-01       62.50    
    978      1     10    179      0.1000E-01       62.50    
    979      1     10    180      0.1000E-01       62.50    
    980      1     10    181      0.1000E-01       62.50    
    981      1     10    182      0.1000E-01       62.50    
    982      1     10    183      0.1000E-01       62.50    
    983      1     10    184      0.1000E-01       62.50    
    984      1     10    185      0.1000E-01       62.50    
    985      1     10    186      0.1000E-01       62.50    
    986      1     10    187      0.1000E-01       62.50    
    987      1     10    188      0.1000E-01       62.50    
    988      1     10    189      0.1000E-01       62.50    
    989      1     10    190      0.1000E-01       62.50    
    990      1     10    191      0.1000E-01       62.50    
    991      1     10    192      0.1000E-01       62.50    
    992      1     10    193      0.1000E-01       62.50    
    993      1     10    194      0.1000E-01       62.50    
    994      1     10    195      0.1000E-01       62.50    
    995      1     10    196      0.1000E-01       62.50    
    996      1     10    197      0.1000E-01       62.50    
    997      1     10    198      0.1000E-01       62.50    
    998      1     10    199      0.1000E-01       62.50    
    999      1     11     83      0.1000E-01       62.50    
   1000      1     11     84      0.1000E-01       62.50    
   1001      1     11     85      0.1000E-01       62.50    
   1002      1     11     86      0.1000E-01       62.50    
   1003      1     11     87      0.1000E-01       62.50    
   1004      1     11     88      0.1000E-01       62.50    
   1005      1     11     89      0.1000E-01       62.50    
   1006      1     11     90      0.1000E-01       62.50    
   1007      1     11     91      0.1000E-01       62.50    
   1008      1     11     92      0.1000E-01       62.50    
   1009      1     11     93      0.1000E-01       62.50    
   1010      1     11     94      0.1000E-01       62.50    
   1011      1     11     95      0.1000E-01       62.50    
   1012      1     11     96      0.1000E-01       62.50    
   1013      1     11     97      0.1000E-01       62.50    
   1014      1     11     98      0.1000E-01       62.50    
   1015      1     11     99      0.1000E-01       62.50    
   1016      1     11    100      0.1000E-01       62.50    
   1017      1     11    101      0.1000E-01       62.50    
   1018      1     11    102      0.1000E-01       62.50    
   1019      1     11    103      0.1000E-01       62.50    
   1020      1     11    104      0.1000E-01       62.50    
   1021      1     11    105      0.1000E-01       62.50    
   1022      1     11    106      0.1000E-01       62.50    
   1023      1     11    107      0.1000E-01       62.50    
   1024      1     11    108      0.1000E-01       62.50    
   1025      1     11    109      0.1000E-01       62.50    
   1026      1     11    110      0.1000E-01       62.50    
   1027      1     11    111      0.1000E-01       62.50    
   1028      1     11    112      0.1000E-01       62.50    
   1029      1     11    119      0.1000E-01       62.50    
   1030      1     11    120      0.1000E-01       62.50    
   1031      1     11    121      0.1000E-01       62.50    
   1032      1     11    122      0.1000E-01       62.50    
   1033      1     11    123      0.1000E-01       62.50    
   1034      1     11    124      0.1000E-01       62.50    
   1035      1     11    125      0.1000E-01       62.50    
   1036      1     11    126      0.1000E-01       62.50    
   1037      1     11    128      0.1000E-01       62.50    
   1038      1     11    129      0.1000E-01       62.50    
   1039      1     11    130      0.1000E-01       62.50    
   1040      1     11    131      0.1000E-01       62.50    
   1041      1     11    132      0.1000E-01       62.50    
   1042      1     11    133      0.1000E-01       62.50    
   1043      1     11    134      0.1000E-01       62.50    
   1044      1     11    135      0.1000E-01       62.50    
   1045      1     11    136      0.1000E-01       62.50    
   1046      1     11    137      0.1000E-01       62.50    
   1047      1     11    138      0.1000E-01       62.50    
   1048      1     11    139      0.1000E-01       62.50    
   1049      1     11    140      0.1000E-01       62.50    
   1050      1     11    141      0.1000E-01       62.50    
   1051      1     11    142      0.1000E-01       62.50    
   1052      1     11    143      0.1000E-01       62.50    
   1053      1     11    144      0.1000E-01       62.50    
   1054      1     11    145      0.1000E-01       62.50    
   1055      1     11    146      0.1000E-01       62.50    
   1056      1     11    147      0.1000E-01       62.50    
   1057      1     11    148      0.1000E-01       62.50    
   1058      1     11    149      0.1000E-01       62.50    
   1059      1     11    150      0.1000E-01       62.50    
   1060      1     11    151      0.1000E-01       62.50    
   1061      1     11    152      0.1000E-01       62.50    
   1062      1     11    153      0.1000E-01       62.50    
   1063      1     11    154      0.1000E-01       62.50    
   1064      1     11    155      0.1000E-01       62.50    
   1065      1     11    156      0.1000E-01       62.50    
   1066      1     11    157      0.1000E-01       62.50    
   1067      1     11    158      0.1000E-01       62.50    
   1068      1     11    159      0.1000E-01       62.50    
   1069      1     11    160      0.1000E-01       62.50    
   1070      1     11    161      0.1000E-01       62.50    
   1071      1     11    162      0.1000E-01       62.50    
   1072      1     11    163      0.1000E-01       62.50    
   1073      1     11    164      0.1000E-01       62.50    
   1074      1     11    165      0.1000E-01       62.50    
   1075      1     11    166      0.1000E-01       62.50    
   1076      1     11    167      0.1000E-01       62.50    
   1077      1     11    168      0.1000E-01       62.50    
   1078      1     11    169      0.1000E-01       62.50    
   1079      1     11    170      0.1000E-01       62.50    
   1080      1     11    171      0.1000E-01       62.50    
   1081      1     11    172      0.1000E-01       62.50    
   1082      1     11    173      0.1000E-01       62.50    
   1083      1     11    174      0.1000E-01       62.50    
   1084      1     11    175      0.1000E-01       62.50    
   1085      1     11    176      0.1000E-01       62.50    
   1086      1     11    177      0.1000E-01       62.50    
   1087      1     11    178      0.1000E-01       62.50    
   1088      1     11    179      0.1000E-01       62.50    
   1089      1     11    181      0.1000E-01       62.50    
   1090      1     11    182      0.1000E-01       62.50    
   1091      1     11    183      0.1000E-01       62.50    
   1092      1     11    184      0.1000E-01       62.50    
   1093      1     11    185      0.1000E-01       62.50    
   1094      1     11    186      0.1000E-01       62.50    
   1095      1     11    187      0.1000E-01       62.50    
   1096      1     11    190      0.1000E-01       62.50    
   1097      1     11    191      0.1000E-01       62.50    
   1098      1     11    192      0.1000E-01       62.50    
   1099      1     11    193      0.1000E-01       62.50    
   1100      1     11    194      0.1000E-01       62.50    
   1101      1     11    195      0.1000E-01       62.50    
   1102      1     11    196      0.1000E-01       62.50    
   1103      1     11    197      0.1000E-01       62.50    
   1104      1     11    198      0.1000E-01       62.50    
   1105      1     11    199      0.1000E-01       62.50    
   1106      1     12     82      0.1000E-01       62.50    
   1107      1     12     83      0.1000E-01       62.50    
   1108      1     12     84      0.1000E-01       62.50    
   1109      1     12     85      0.1000E-01       62.50    
   1110      1     12     86      0.1000E-01       62.50    
   1111      1     12     87      0.1000E-01       62.50    
   1112      1     12     88      0.1000E-01       62.50    
   1113      1     12     89      0.1000E-01       62.50    
   1114      1     12     90      0.1000E-01       62.50    
   1115      1     12     91      0.1000E-01       62.50    
   1116      1     12     92      0.1000E-01       62.50    
   1117      1     12     93      0.1000E-01       62.50    
   1118      1     12     94      0.1000E-01       62.50    
   1119      1     12     95      0.1000E-01       62.50    
   1120      1     12     96      0.1000E-01       62.50    
   1121      1     12     97      0.1000E-01       62.50    
   1122      1     12     98      0.1000E-01       62.50    
   1123      1     12     99      0.1000E-01       62.50    
   1124      1     12    100      0.1000E-01       62.50    
   1125      1     12    101      0.1000E-01       62.50    
   1126      1     12    102      0.1000E-01       62.50    
   1127      1     12    103      0.1000E-01       62.50    
   1128      1     12    104      0.1000E-01       62.50    
   1129      1     12    105      0.1000E-01       62.50    
   1130      1     12    106      0.1000E-01       62.50    
   1131      1     12    107      0.1000E-01       62.50    
   1132      1     12    118      0.1000E-01       62.50    
   1133      1     12    119      0.1000E-01       62.50    
   1134      1     12    120      0.1000E-01       62.50    
   1135      1     12    121      0.1000E-01       62.50    
   1136      1     12    128      0.1000E-01       62.50    
   1137      1     12    129      0.1000E-01       62.50    
   1138      1     12    130      0.1000E-01       62.50    
   1139      1     12    131      0.1000E-01       62.50    
   1140      1     12    132      0.1000E-01       62.50    
   1141      1     12    133      0.1000E-01       62.50    
   1142      1     12    134      0.1000E-01       62.50    
   1143      1     12    135      0.1000E-01       62.50    
   1144      1     12    136      0.1000E-01       62.50    
   1145      1     12    137      0.1000E-01       62.50    
   1146      1     12    138      0.1000E-01       62.50    
   1147      1     12    139      0.1000E-01       62.50    
   1148      1     12    141      0.1000E-01       62.50    
   1149      1     12    142      0.1000E-01       62.50    
   1150      1     12    143      0.1000E-01       62.50    
   1151      1     12    145      0.1000E-01       62.50    
   1152      1     12    146      0.1000E-01       62.50    
   1153      1     12    147      0.1000E-01       62.50    
   1154      1     12    148      0.1000E-01       62.50    
   1155      1     12    149      0.1000E-01       62.50    
   1156      1     12    150      0.1000E-01       62.50    
   1157      1     12    151      0.1000E-01       62.50    
   1158      1     12    152      0.1000E-01       62.50    
   1159      1     12    153      0.1000E-01       62.50    
   1160      1     12    154      0.1000E-01       62.50    
   1161      1     12    155      0.1000E-01       62.50    
   1162      1     12    156      0.1000E-01       62.50    
   1163      1     12    157      0.1000E-01       62.50    
   1164      1     12    158      0.1000E-01       62.50    
   1165      1     12    159      0.1000E-01       62.50    
   1166      1     12    160      0.1000E-01       62.50    
   1167      1     12    161      0.1000E-01       62.50    
   1168      1     12    162      0.1000E-01       62.50    
   1169      1     12    163      0.1000E-01       62.50    
   1170      1     12    164      0.1000E-01       62.50    
   1171      1     12    165      0.1000E-01       62.50    
   1172      1     12    166      0.1000E-01       62.50    
   1173      1     12    167      0.1000E-01       62.50    
   1174      1     12    168      0.1000E-01       62.50    
   1175      1     12    169      0.1000E-01       62.50    
   1176      1     12    170      0.1000E-01       62.50    
   1177      1     12    171      0.1000E-01       62.50    
   1178      1     12    172      0.1000E-01       62.50    
   1179      1     12    173      0.1000E-01       62.50    
   1180      1     12    174      0.1000E-01       62.50    
   1181      1     12    175      0.1000E-01       62.50    
   1182      1     12    176      0.1000E-01       62.50    
   1183      1     12    177      0.1000E-01       62.50    
   1184      1     12    178      0.1000E-01       62.50    
   1185      1     12    179      0.1000E-01       62.50    
   1186      1     12    183      0.1000E-01       62.50    
   1187      1     12    184      0.1000E-01       62.50    
   1188      1     12    185      0.1000E-01       62.50    
   1189      1     12    186      0.1000E-01       62.50    
   1190      1     12    189      0.1000E-01       62.50    
   1191      1     12    190      0.1000E-01       62.50    
   1192      1     12    191      0.1000E-01       62.50    
   1193      1     12    192      0.1000E-01       62.50    
   1194      1     12    193      0.1000E-01       62.50    
   1195      1     12    194      0.1000E-01       62.50    
   1196      1     12    195      0.1000E-01       62.50    
   1197      1     12    196      0.1000E-01       62.50    
   1198      1     12    197      0.1000E-01       62.50    
   1199      1     12    198      0.1000E-01       62.50    
   1200      1     12    199      0.1000E-01       62.50    
   1201      1     13     81      0.1000E-01       62.50    
   1202      1     13     82      0.1000E-01       62.50    
   1203      1     13     83      0.1000E-01       62.50    
   1204      1     13     84      0.1000E-01       62.50    
   1205      1     13     85      0.1000E-01       62.50    
   1206      1     13     86      0.1000E-01       62.50    
   1207      1     13     87      0.1000E-01       62.50    
   1208      1     13     88      0.1000E-01       62.50    
   1209      1     13     89      0.1000E-01       62.50    
   1210      1     13     90      0.1000E-01       62.50    
   1211      1     13     91      0.1000E-01       62.50    
   1212      1     13     92      0.1000E-01       62.50    
   1213      1     13     93      0.1000E-01       62.50    
   1214      1     13     94      0.1000E-01       62.50    
   1215      1     13     95      0.1000E-01       62.50    
   1216      1     13     96      0.1000E-01       62.50    
   1217      1     13     97      0.1000E-01       62.50    
   1218      1     13     98      0.1000E-01       62.50    
   1219      1     13     99      0.1000E-01       62.50    
   1220      1     13    100      0.1000E-01       62.50    
   1221      1     13    101      0.1000E-01       62.50    
   1222      1     13    102      0.1000E-01       62.50    
   1223      1     13    103      0.1000E-01       62.50    
   1224      1     13    104      0.1000E-01       62.50    
   1225      1     13    105      0.1000E-01       62.50    
   1226      1     13    106      0.1000E-01       62.50    
   1227      1     13    107      0.1000E-01       62.50    
   1228      1     13    108      0.1000E-01       62.50    
   1229      1     13    118      0.1000E-01       62.50    
   1230      1     13    119      0.1000E-01       62.50    
   1231      1     13    120      0.1000E-01       62.50    
   1232      1     13    121      0.1000E-01       62.50    
   1233      1     13    128      0.1000E-01       62.50    
   1234      1     13    129      0.1000E-01       62.50    
   1235      1     13    130      0.1000E-01       62.50    
   1236      1     13    133      0.1000E-01       62.50    
   1237      1     13    134      0.1000E-01       62.50    
   1238      1     13    135      0.1000E-01       62.50    
   1239      1     13    136      0.1000E-01       62.50    
   1240      1     13    138      0.1000E-01       62.50    
   1241      1     13    139      0.1000E-01       62.50    
   1242      1     13    145      0.1000E-01       62.50    
   1243      1     13    146      0.1000E-01       62.50    
   1244      1     13    149      0.1000E-01       62.50    
   1245      1     13    150      0.1000E-01       62.50    
   1246      1     13    151      0.1000E-01       62.50    
   1247      1     13    152      0.1000E-01       62.50    
   1248      1     13    153      0.1000E-01       62.50    
   1249      1     13    154      0.1000E-01       62.50    
   1250      1     13    155      0.1000E-01       62.50    
   1251      1     13    156      0.1000E-01       62.50    
   1252      1     13    157      0.1000E-01       62.50    
   1253      1     13    158      0.1000E-01       62.50    
   1254      1     13    159      0.1000E-01       62.50    
   1255      1     13    160      0.1000E-01       62.50    
   1256      1     13    161      0.1000E-01       62.50    
   1257      1     13    162      0.1000E-01       62.50    
   1258      1     13    163      0.1000E-01       62.50    
   1259      1     13    164      0.1000E-01       62.50    
   1260      1     13    165      0.1000E-01       62.50    
   1261      1     13    166      0.1000E-01       62.50    
   1262      1     13    167      0.1000E-01       62.50    
   1263      1     13    168      0.1000E-01       62.50    
   1264      1     13    169      0.1000E-01       62.50    
   1265      1     13    170      0.1000E-01       62.50    
   1266      1     13    171      0.1000E-01       62.50    
   1267      1     13    172      0.1000E-01       62.50    
   1268      1     13    173      0.1000E-01       62.50    
   1269      1     13    174      0.1000E-01       62.50    
   1270      1     13    175      0.1000E-01       62.50    
   1271      1     13    176      0.1000E-01       62.50    
   1272      1     13    177      0.1000E-01       62.50    
   1273      1     13    178      0.1000E-01       62.50    
   1274      1     13    189      0.1000E-01       62.50    
   1275      1     13    190      0.1000E-01       62.50    
   1276      1     13    191      0.1000E-01       62.50    
   1277      1     13    192      0.1000E-01       62.50    
   1278      1     13    193      0.1000E-01       62.50    
   1279      1     13    194      0.1000E-01       62.50    
   1280      1     13    195      0.1000E-01       62.50    
   1281      1     13    196      0.1000E-01       62.50    
   1282      1     13    197      0.1000E-01       62.50    
   1283      1     13    198      0.1000E-01       62.50    
   1284      1     13    199      0.1000E-01       62.50    
   1285      1     14     77      0.1000E-01       62.50    
   1286      1     14     78      0.1000E-01       62.50    
   1287      1     14     79      0.1000E-01       62.50    
   1288      1     14     80      0.1000E-01       62.50    
   1289      1     14     81      0.1000E-01       62.50    
   1290      1     14     82      0.1000E-01       62.50    
   1291      1     14     83      0.1000E-01       62.50    
   1292      1     14     84      0.1000E-01       62.50    
   1293      1     14     85      0.1000E-01       62.50    
   1294      1     14     86      0.1000E-01       62.50    
   1295      1     14     87      0.1000E-01       62.50    
   1296      1     14     88      0.1000E-01       62.50    
   1297      1     14     89      0.1000E-01       62.50    
   1298      1     14     90      0.1000E-01       62.50    
   1299      1     14     91      0.1000E-01       62.50    
   1300      1     14     92      0.1000E-01       62.50    
   1301      1     14     93      0.1000E-01       62.50    
   1302      1     14     94      0.1000E-01       62.50    
   1303      1     14     95      0.1000E-01       62.50    
   1304      1     14     96      0.1000E-01       62.50    
   1305      1     14     97      0.1000E-01       62.50    
   1306      1     14     98      0.1000E-01       62.50    
   1307      1     14     99      0.1000E-01       62.50    
   1308      1     14    100      0.1000E-01       62.50    
   1309      1     14    101      0.1000E-01       62.50    
   1310      1     14    102      0.1000E-01       62.50    
   1311      1     14    103      0.1000E-01       62.50    
   1312      1     14    104      0.1000E-01       62.50    
   1313      1     14    105      0.1000E-01       62.50    
   1314      1     14    107      0.1000E-01       62.50    
   1315      1     14    108      0.1000E-01       62.50    
   1316      1     14    109      0.1000E-01       62.50    
   1317      1     14    128      0.1000E-01       62.50    
   1318      1     14    129      0.1000E-01       62.50    
   1319      1     14    132      0.1000E-01       62.50    
   1320      1     14    133      0.1000E-01       62.50    
   1321      1     14    134      0.1000E-01       62.50    
   1322      1     14    135      0.1000E-01       62.50    
   1323      1     14    136      0.1000E-01       62.50    
   1324      1     14    138      0.1000E-01       62.50    
   1325      1     14    139      0.1000E-01       62.50    
   1326      1     14    149      0.1000E-01       62.50    
   1327      1     14    150      0.1000E-01       62.50    
   1328      1     14    151      0.1000E-01       62.50    
   1329      1     14    152      0.1000E-01       62.50    
   1330      1     14    153      0.1000E-01       62.50    
   1331      1     14    154      0.1000E-01       62.50    
   1332      1     14    155      0.1000E-01       62.50    
   1333      1     14    156      0.1000E-01       62.50    
   1334      1     14    157      0.1000E-01       62.50    
   1335      1     14    158      0.1000E-01       62.50    
   1336      1     14    159      0.1000E-01       62.50    
   1337      1     14    160      0.1000E-01       62.50    
   1338      1     14    161      0.1000E-01       62.50    
   1339      1     14    162      0.1000E-01       62.50    
   1340      1     14    163      0.1000E-01       62.50    
   1341      1     14    164      0.1000E-01       62.50    
   1342      1     14    165      0.1000E-01       62.50    
   1343      1     14    166      0.1000E-01       62.50    
   1344      1     14    167      0.1000E-01       62.50    
   1345      1     14    168      0.1000E-01       62.50    
   1346      1     14    169      0.1000E-01       62.50    
   1347      1     14    170      0.1000E-01       62.50    
   1348      1     14    171      0.1000E-01       62.50    
   1349      1     14    172      0.1000E-01       62.50    
   1350      1     14    173      0.1000E-01       62.50    
   1351      1     14    174      0.1000E-01       62.50    
   1352      1     14    175      0.1000E-01       62.50    
   1353      1     14    177      0.1000E-01       62.50    
   1354      1     14    189      0.1000E-01       62.50    
   1355      1     14    190      0.1000E-01       62.50    
   1356      1     14    191      0.1000E-01       62.50    
   1357      1     14    192      0.1000E-01       62.50    
   1358      1     14    193      0.1000E-01       62.50    
   1359      1     14    194      0.1000E-01       62.50    
   1360      1     14    195      0.1000E-01       62.50    
   1361      1     14    196      0.1000E-01       62.50    
   1362      1     14    197      0.1000E-01       62.50    
   1363      1     14    198      0.1000E-01       62.50    
   1364      1     14    199      0.1000E-01       62.50    
   1365      1     15     72      0.1000E-01       62.50    
   1366      1     15     73      0.1000E-01       62.50    
   1367      1     15     74      0.1000E-01       62.50    
   1368      1     15     75      0.1000E-01       62.50    
   1369      1     15     76      0.1000E-01       62.50    
   1370      1     15     77      0.1000E-01       62.50    
   1371      1     15     78      0.1000E-01       62.50    
   1372      1     15     79      0.1000E-01       62.50    
   1373      1     15     80      0.1000E-01       62.50    
   1374      1     15     81      0.1000E-01       62.50    
   1375      1     15     82      0.1000E-01       62.50    
   1376      1     15     83      0.1000E-01       62.50    
   1377      1     15     84      0.1000E-01       62.50    
   1378      1     15     85      0.1000E-01       62.50    
   1379      1     15     86      0.1000E-01       62.50    
   1380      1     15     87      0.1000E-01       62.50    
   1381      1     15     88      0.1000E-01       62.50    
   1382      1     15     89      0.1000E-01       62.50    
   1383      1     15     90      0.1000E-01       62.50    
   1384      1     15     91      0.1000E-01       62.50    
   1385      1     15     92      0.1000E-01       62.50    
   1386      1     15     93      0.1000E-01       62.50    
   1387      1     15     94      0.1000E-01       62.50    
   1388      1     15     95      0.1000E-01       62.50    
   1389      1     15     96      0.1000E-01       62.50    
   1390      1     15     97      0.1000E-01       62.50    
   1391      1     15     98      0.1000E-01       62.50    
   1392      1     15     99      0.1000E-01       62.50    
   1393      1     15    100      0.1000E-01       62.50    
   1394      1     15    101      0.1000E-01       62.50    
   1395      1     15    102      0.1000E-01       62.50    
   1396      1     15    103      0.1000E-01       62.50    
   1397      1     15    104      0.1000E-01       62.50    
   1398      1     15    107      0.1000E-01       62.50    
   1399      1     15    108      0.1000E-01       62.50    
   1400      1     15    109      0.1000E-01       62.50    
   1401      1     15    132      0.1000E-01       62.50    
   1402      1     15    133      0.1000E-01       62.50    
   1403      1     15    134      0.1000E-01       62.50    
   1404      1     15    135      0.1000E-01       62.50    
   1405      1     15    136      0.1000E-01       62.50    
   1406      1     15    137      0.1000E-01       62.50    
   1407      1     15    139      0.1000E-01       62.50    
   1408      1     15    148      0.1000E-01       62.50    
   1409      1     15    149      0.1000E-01       62.50    
   1410      1     15    150      0.1000E-01       62.50    
   1411      1     15    151      0.1000E-01       62.50    
   1412      1     15    152      0.1000E-01       62.50    
   1413      1     15    153      0.1000E-01       62.50    
   1414      1     15    154      0.1000E-01       62.50    
   1415      1     15    155      0.1000E-01       62.50    
   1416      1     15    156      0.1000E-01       62.50    
   1417      1     15    158      0.1000E-01       62.50    
   1418      1     15    159      0.1000E-01       62.50    
   1419      1     15    160      0.1000E-01       62.50    
   1420      1     15    161      0.1000E-01       62.50    
   1421      1     15    162      0.1000E-01       62.50    
   1422      1     15    163      0.1000E-01       62.50    
   1423      1     15    164      0.1000E-01       62.50    
   1424      1     15    165      0.1000E-01       62.50    
   1425      1     15    166      0.1000E-01       62.50    
   1426      1     15    167      0.1000E-01       62.50    
   1427      1     15    168      0.1000E-01       62.50    
   1428      1     15    169      0.1000E-01       62.50    
   1429      1     15    170      0.1000E-01       62.50    
   1430      1     15    171      0.1000E-01       62.50    
   1431      1     15    172      0.1000E-01       62.50    
   1432      1     15    173      0.1000E-01       62.50    
   1433      1     15    174      0.1000E-01       62.50    
   1434      1     15    175      0.1000E-01       62.50    
   1435      1     15    189      0.1000E-01       62.50    
   1436      1     15    190      0.1000E-01       62.50    
   1437      1     15    191      0.1000E-01       62.50    
   1438      1     15    192      0.1000E-01       62.50    
   1439      1     15    193      0.1000E-01       62.50    
   1440      1     15    194      0.1000E-01       62.50    
   1441      1     15    195      0.1000E-01       62.50    
   1442      1     15    196      0.1000E-01       62.50    
   1443      1     15    197      0.1000E-01       62.50    
   1444      1     15    198      0.1000E-01       62.50    
   1445      1     15    199      0.1000E-01       62.50    
   1446      1     16     67      0.1000E-01       62.50    
   1447      1     16     68      0.1000E-01       62.50    
   1448      1     16     69      0.1000E-01       62.50    
   1449      1     16     70      0.1000E-01       62.50    
   1450      1     16     71      0.1000E-01       62.50    
   1451      1     16     72      0.1000E-01       62.50    
   1452      1     16     73      0.1000E-01       62.50    
   1453      1     16     74      0.1000E-01       62.50    
   1454      1     16     75      0.1000E-01       62.50    
   1455      1     16     76      0.1000E-01       62.50    
   1456      1     16     77      0.1000E-01       62.50    
   1457      1     16     78      0.1000E-01       62.50    
   1458      1     16     79      0.1000E-01       62.50    
   1459      1     16     80      0.1000E-01       62.50    
   1460      1     16     81      0.1000E-01       62.50    
   1461      1     16     82      0.1000E-01       62.50    
   1462      1     16     83      0.1000E-01       62.50    
   1463      1     16     84      0.1000E-01       62.50    
   1464      1     16     85      0.1000E-01       62.50    
   1465      1     16     86      0.1000E-01       62.50    
   1466      1     16     87      0.1000E-01       62.50    
   1467      1     16     88      0.1000E-01       62.50    
   1468      1     16     89      0.1000E-01       62.50    
   1469      1     16     90      0.1000E-01       62.50    
   1470      1     16     91      0.1000E-01       62.50    
   1471      1     16     92      0.1000E-01       62.50    
   1472      1     16     93      0.1000E-01       62.50    
   1473      1     16     94      0.1000E-01       62.50    
   1474      1     16     95      0.1000E-01       62.50    
   1475      1     16     96      0.1000E-01       62.50    
   1476      1     16     97      0.1000E-01       62.50    
   1477      1     16     98      0.1000E-01       62.50    
   1478      1     16     99      0.1000E-01       62.50    
   1479      1     16    100      0.1000E-01       62.50    
   1480      1     16    102      0.1000E-01       62.50    
   1481      1     16    132      0.1000E-01       62.50    
   1482      1     16    133      0.1000E-01       62.50    
   1483      1     16    134      0.1000E-01       62.50    
   1484      1     16    135      0.1000E-01       62.50    
   1485      1     16    136      0.1000E-01       62.50    
   1486      1     16    146      0.1000E-01       62.50    
   1487      1     16    147      0.1000E-01       62.50    
   1488      1     16    148      0.1000E-01       62.50    
   1489      1     16    149      0.1000E-01       62.50    
   1490      1     16    150      0.1000E-01       62.50    
   1491      1     16    151      0.1000E-01       62.50    
   1492      1     16    152      0.1000E-01       62.50    
   1493      1     16    153      0.1000E-01       62.50    
   1494      1     16    154      0.1000E-01       62.50    
   1495      1     16    155      0.1000E-01       62.50    
   1496      1     16    158      0.1000E-01       62.50    
   1497      1     16    159      0.1000E-01       62.50    
   1498      1     16    160      0.1000E-01       62.50    
   1499      1     16    161      0.1000E-01       62.50    
   1500      1     16    162      0.1000E-01       62.50    
   1501      1     16    164      0.1000E-01       62.50    
   1502      1     16    165      0.1000E-01       62.50    
   1503      1     16    166      0.1000E-01       62.50    
   1504      1     16    167      0.1000E-01       62.50    
   1505      1     16    168      0.1000E-01       62.50    
   1506      1     16    169      0.1000E-01       62.50    
   1507      1     16    170      0.1000E-01       62.50    
   1508      1     16    171      0.1000E-01       62.50    
   1509      1     16    172      0.1000E-01       62.50    
   1510      1     16    173      0.1000E-01       62.50    
   1511      1     16    174      0.1000E-01       62.50    
   1512      1     16    189      0.1000E-01       62.50    
   1513      1     16    190      0.1000E-01       62.50    
   1514      1     16    191      0.1000E-01       62.50    
   1515      1     16    192      0.1000E-01       62.50    
   1516      1     16    193      0.1000E-01       62.50    
   1517      1     16    194      0.1000E-01       62.50    
   1518      1     16    195      0.1000E-01       62.50    
   1519      1     16    196      0.1000E-01       62.50    
   1520      1     16    197      0.1000E-01       62.50    
   1521      1     16    198      0.1000E-01       62.50    
   1522      1     16    199      0.1000E-01       62.50    
   1523      1     17     64      0.1000E-01       62.50    
   1524      1     17     65      0.1000E-01       62.50    
   1525      1     17     66      0.1000E-01       62.50    
   1526      1     17     67      0.1000E-01       62.50    
   1527      1     17     68      0.1000E-01       62.50    
   1528      1     17     69      0.1000E-01       62.50    
   1529      1     17     70      0.1000E-01       62.50    
   1530      1     17     71      0.1000E-01       62.50    
   1531      1     17     72      0.1000E-01       62.50    
   1532      1     17     73      0.1000E-01       62.50    
   1533      1     17     74      0.1000E-01       62.50    
   1534      1     17     75      0.1000E-01       62.50    
   1535      1     17     76      0.1000E-01       62.50    
   1536      1     17     77      0.1000E-01       62.50    
   1537      1     17     78      0.1000E-01       62.50    
   1538      1     17     79      0.1000E-01       62.50    
   1539      1     17     80      0.1000E-01       62.50    
   1540      1     17     81      0.1000E-01       62.50    
   1541      1     17     82      0.1000E-01       62.50    
   1542      1     17     83      0.1000E-01       62.50    
   1543      1     17     84      0.1000E-01       62.50    
   1544      1     17     85      0.1000E-01       62.50    
   1545      1     17     86      0.1000E-01       62.50    
   1546      1     17     87      0.1000E-01       62.50    
   1547      1     17     88      0.1000E-01       62.50    
   1548      1     17     89      0.1000E-01       62.50    
   1549      1     17     90      0.1000E-01       62.50    
   1550      1     17     91      0.1000E-01       62.50    
   1551      1     17     92      0.1000E-01       62.50    
   1552      1     17     93      0.1000E-01       62.50    
   1553      1     17     94      0.1000E-01       62.50    
   1554      1     17     95      0.1000E-01       62.50    
   1555      1     17     96      0.1000E-01       62.50    
   1556      1     17     97      0.1000E-01       62.50    
   1557      1     17     98      0.1000E-01       62.50    
   1558      1     17     99      0.1000E-01       62.50    
   1559      1     17    100      0.1000E-01       62.50    
   1560      1     17    132      0.1000E-01       62.50    
   1561      1     17    133      0.1000E-01       62.50    
   1562      1     17    135      0.1000E-01       62.50    
   1563      1     17    146      0.1000E-01       62.50    
   1564      1     17    147      0.1000E-01       62.50    
   1565      1     17    148      0.1000E-01       62.50    
   1566      1     17    149      0.1000E-01       62.50    
   1567      1     17    150      0.1000E-01       62.50    
   1568      1     17    151      0.1000E-01       62.50    
   1569      1     17    152      0.1000E-01       62.50    
   1570      1     17    161      0.1000E-01       62.50    
   1571      1     17    162      0.1000E-01       62.50    
   1572      1     17    166      0.1000E-01       62.50    
   1573      1     17    167      0.1000E-01       62.50    
   1574      1     17    168      0.1000E-01       62.50    
   1575      1     17    169      0.1000E-01       62.50    
   1576      1     17    170      0.1000E-01       62.50    
   1577      1     17    171      0.1000E-01       62.50    
   1578      1     17    172      0.1000E-01       62.50    
   1579      1     17    173      0.1000E-01       62.50    
   1580      1     17    174      0.1000E-01       62.50    
   1581      1     17    189      0.1000E-01       62.50    
   1582      1     17    190      0.1000E-01       62.50    
   1583      1     17    191      0.1000E-01       62.50    
   1584      1     17    192      0.1000E-01       62.50    
   1585      1     17    193      0.1000E-01       62.50    
   1586      1     17    194      0.1000E-01       62.50    
   1587      1     17    195      0.1000E-01       62.50    
   1588      1     17    196      0.1000E-01       62.50    
   1589      1     17    197      0.1000E-01       62.50    
   1590      1     17    198      0.1000E-01       62.50    
   1591      1     17    199      0.1000E-01       62.50    
   1592      1     18     61      0.1000E-01       62.50    
   1593      1     18     62      0.1000E-01       62.50    
   1594      1     18     63      0.1000E-01       62.50    
   1595      1     18     64      0.1000E-01       62.50    
   1596      1     18     65      0.1000E-01       62.50    
   1597      1     18     66      0.1000E-01       62.50    
   1598      1     18     67      0.1000E-01       62.50    
   1599      1     18     68      0.1000E-01       62.50    
   1600      1     18     69      0.1000E-01       62.50    
   1601      1     18     70      0.1000E-01       62.50    
   1602      1     18     71      0.1000E-01       62.50    
   1603      1     18     72      0.1000E-01       62.50    
   1604      1     18     73      0.1000E-01       62.50    
   1605      1     18     74      0.1000E-01       62.50    
   1606      1     18     75      0.1000E-01       62.50    
   1607      1     18     76      0.1000E-01       62.50    
   1608      1     18     77      0.1000E-01       62.50    
   1609      1     18     78      0.1000E-01       62.50    
   1610      1     18     79      0.1000E-01       62.50    
   1611      1     18     80      0.1000E-01       62.50    
   1612      1     18     81      0.1000E-01       62.50    
   1613      1     18     82      0.1000E-01       62.50    
   1614      1     18     83      0.1000E-01       62.50    
   1615      1     18     84      0.1000E-01       62.50    
   1616      1     18     85      0.1000E-01       62.50    
   1617      1     18     86      0.1000E-01       62.50    
   1618      1     18     87      0.1000E-01       62.50    
   1619      1     18     88      0.1000E-01       62.50    
   1620      1     18     89      0.1000E-01       62.50    
   1621      1     18     90      0.1000E-01       62.50    
   1622      1     18     91      0.1000E-01       62.50    
   1623      1     18     92      0.1000E-01       62.50    
   1624      1     18     93      0.1000E-01       62.50    
   1625      1     18     94      0.1000E-01       62.50    
   1626      1     18     95      0.1000E-01       62.50    
   1627      1     18     96      0.1000E-01       62.50    
   1628      1     18     97      0.1000E-01       62.50    
   1629      1     18     98      0.1000E-01       62.50    
   1630      1     18     99      0.1000E-01       62.50    
   1631      1     18    132      0.1000E-01       62.50    
   1632      1     18    133      0.1000E-01       62.50    
   1633      1     18    147      0.1000E-01       62.50    
   1634      1     18    148      0.1000E-01       62.50    
   1635      1     18    149      0.1000E-01       62.50    
   1636      1     18    150      0.1000E-01       62.50    
   1637      1     18    162      0.1000E-01       62.50    
   1638      1     18    169      0.1000E-01       62.50    
   1639      1     18    170      0.1000E-01       62.50    
   1640      1     18    171      0.1000E-01       62.50    
   1641      1     18    172      0.1000E-01       62.50    
   1642      1     18    173      0.1000E-01       62.50    
   1643      1     18    174      0.1000E-01       62.50    
   1644      1     18    190      0.1000E-01       62.50    
   1645      1     18    191      0.1000E-01       62.50    
   1646      1     18    192      0.1000E-01       62.50    
   1647      1     18    193      0.1000E-01       62.50    
   1648      1     18    194      0.1000E-01       62.50    
   1649      1     18    195      0.1000E-01       62.50    
   1650      1     18    196      0.1000E-01       62.50    
   1651      1     18    197      0.1000E-01       62.50    
   1652      1     18    198      0.1000E-01       62.50    
   1653      1     18    199      0.1000E-01       62.50    
   1654      1     19     58      0.1000E-01       62.50    
   1655      1     19     59      0.1000E-01       62.50    
   1656      1     19     60      0.1000E-01       62.50    
   1657      1     19     61      0.1000E-01       62.50    
   1658      1     19     62      0.1000E-01       62.50    
   1659      1     19     63      0.1000E-01       62.50    
   1660      1     19     64      0.1000E-01       62.50    
   1661      1     19     65      0.1000E-01       62.50    
   1662      1     19     66      0.1000E-01       62.50    
   1663      1     19     67      0.1000E-01       62.50    
   1664      1     19     68      0.1000E-01       62.50    
   1665      1     19     69      0.1000E-01       62.50    
   1666      1     19     70      0.1000E-01       62.50    
   1667      1     19     71      0.1000E-01       62.50    
   1668      1     19     72      0.1000E-01       62.50    
   1669      1     19     73      0.1000E-01       62.50    
   1670      1     19     74      0.1000E-01       62.50    
   1671      1     19     75      0.1000E-01       62.50    
   1672      1     19     76      0.1000E-01       62.50    
   1673      1     19     77      0.1000E-01       62.50    
   1674      1     19     78      0.1000E-01       62.50    
   1675      1     19     79      0.1000E-01       62.50    
   1676      1     19     80      0.1000E-01       62.50    
   1677      1     19     81      0.1000E-01       62.50    
   1678      1     19     82      0.1000E-01       62.50    
   1679      1     19     83      0.1000E-01       62.50    
   1680      1     19     84      0.1000E-01       62.50    
   1681      1     19     85      0.1000E-01       62.50    
   1682      1     19     86      0.1000E-01       62.50    
   1683      1     19     87      0.1000E-01       62.50    
   1684      1     19     88      0.1000E-01       62.50    
   1685      1     19     89      0.1000E-01       62.50    
   1686      1     19     90      0.1000E-01       62.50    
   1687      1     19     91      0.1000E-01       62.50    
   1688      1     19     92      0.1000E-01       62.50    
   1689      1     19     93      0.1000E-01       62.50    
   1690      1     19     94      0.1000E-01       62.50    
   1691      1     19     95      0.1000E-01       62.50    
   1692      1     19     96      0.1000E-01       62.50    
   1693      1     19     97      0.1000E-01       62.50    
   1694      1     19     98      0.1000E-01       62.50    
   1695      1     19     99      0.1000E-01       62.50    
   1696      1     19    162      0.1000E-01       62.50    
   1697      1     19    171      0.1000E-01       62.50    
   1698      1     19    172      0.1000E-01       62.50    
   1699      1     19    173      0.1000E-01       62.50    
   1700      1     19    174      0.1000E-01       62.50    
   1701      1     19    190      0.1000E-01       62.50    
   1702      1     19    191      0.1000E-01       62.50    
   1703      1     19    192      0.1000E-01       62.50    
   1704      1     19    193      0.1000E-01       62.50    
   1705      1     19    194      0.1000E-01       62.50    
   1706      1     19    195      0.1000E-01       62.50    
   1707      1     19    196      0.1000E-01       62.50    
   1708      1     19    197      0.1000E-01       62.50    
   1709      1     19    198      0.1000E-01       62.50    
   1710      1     19    199      0.1000E-01       62.50    
   1711      1     20     56      0.1000E-01       62.50    
   1712      1     20     57      0.1000E-01       62.50    
   1713      1     20     58      0.1000E-01       62.50    
   1714      1     20     59      0.1000E-01       62.50    
   1715      1     20     60      0.1000E-01       62.50    
   1716      1     20     61      0.1000E-01       62.50    
   1717      1     20     62      0.1000E-01       62.50    
   1718      1     20     63      0.1000E-01       62.50    
   1719      1     20     64      0.1000E-01       62.50    
   1720      1     20     65      0.1000E-01       62.50    
   1721      1     20     66      0.1000E-01       62.50    
   1722      1     20     67      0.1000E-01       62.50    
   1723      1     20     68      0.1000E-01       62.50    
   1724      1     20     69      0.1000E-01       62.50    
   1725      1     20     70      0.1000E-01       62.50    
   1726      1     20     71      0.1000E-01       62.50    
   1727      1     20     72      0.1000E-01       62.50    
   1728      1     20     73      0.1000E-01       62.50    
   1729      1     20     74      0.1000E-01       62.50    
   1730      1     20     75      0.1000E-01       62.50    
   1731      1     20     76      0.1000E-01       62.50    
   1732      1     20     77      0.1000E-01       62.50    
   1733      1     20     78      0.1000E-01       62.50    
   1734      1     20     79      0.1000E-01       62.50    
   1735      1     20     80      0.1000E-01       62.50    
   1736      1     20     81      0.1000E-01       62.50    
   1737      1     20     82      0.1000E-01       62.50    
   1738      1     20     83      0.1000E-01       62.50    
   1739      1     20     84      0.1000E-01       62.50    
   1740      1     20     85      0.1000E-01       62.50    
   1741      1     20     86      0.1000E-01       62.50    
   1742      1     20     87      0.1000E-01       62.50    
   1743      1     20     88      0.1000E-01       62.50    
   1744      1     20     89      0.1000E-01       62.50    
   1745      1     20     90      0.1000E-01       62.50    
   1746      1     20     91      0.1000E-01       62.50    
   1747      1     20     92      0.1000E-01       62.50    
   1748      1     20     93      0.1000E-01       62.50    
   1749      1     20     94      0.1000E-01       62.50    
   1750      1     20     95      0.1000E-01       62.50    
   1751      1     20     96      0.1000E-01       62.50    
   1752      1     20     97      0.1000E-01       62.50    
   1753      1     20     98      0.1000E-01       62.50    
   1754      1     20     99      0.1000E-01       62.50    
   1755      1     20    172      0.1000E-01       62.50    
   1756      1     20    173      0.1000E-01       62.50    
   1757      1     20    174      0.1000E-01       62.50    
   1758      1     20    175      0.1000E-01       62.50    
   1759      1     20    190      0.1000E-01       62.50    
   1760      1     20    191      0.1000E-01       62.50    
   1761      1     20    192      0.1000E-01       62.50    
   1762      1     20    193      0.1000E-01       62.50    
   1763      1     20    194      0.1000E-01       62.50    
   1764      1     20    195      0.1000E-01       62.50    
   1765      1     20    196      0.1000E-01       62.50    
   1766      1     20    197      0.1000E-01       62.50    
   1767      1     20    198      0.1000E-01       62.50    
   1768      1     20    199      0.1000E-01       62.50    
   1769      1     21     53      0.1000E-01       62.50    
   1770      1     21     54      0.1000E-01       62.50    
   1771      1     21     55      0.1000E-01       62.50    
   1772      1     21     56      0.1000E-01       62.50    
   1773      1     21     57      0.1000E-01       62.50    
   1774      1     21     58      0.1000E-01       62.50    
   1775      1     21     59      0.1000E-01       62.50    
   1776      1     21     60      0.1000E-01       62.50    
   1777      1     21     61      0.1000E-01       62.50    
   1778      1     21     62      0.1000E-01       62.50    
   1779      1     21     63      0.1000E-01       62.50    
   1780      1     21     64      0.1000E-01       62.50    
   1781      1     21     65      0.1000E-01       62.50    
   1782      1     21     66      0.1000E-01       62.50    
   1783      1     21     67      0.1000E-01       62.50    
   1784      1     21     68      0.1000E-01       62.50    
   1785      1     21     69      0.1000E-01       62.50    
   1786      1     21     70      0.1000E-01       62.50    
   1787      1     21     71      0.1000E-01       62.50    
   1788      1     21     72      0.1000E-01       62.50    
   1789      1     21     73      0.1000E-01       62.50    
   1790      1     21     74      0.1000E-01       62.50    
   1791      1     21     75      0.1000E-01       62.50    
   1792      1     21     76      0.1000E-01       62.50    
   1793      1     21     77      0.1000E-01       62.50    
   1794      1     21     78      0.1000E-01       62.50    
   1795      1     21     79      0.1000E-01       62.50    
   1796      1     21     80      0.1000E-01       62.50    
   1797      1     21     81      0.1000E-01       62.50    
   1798      1     21     82      0.1000E-01       62.50    
   1799      1     21     83      0.1000E-01       62.50    
   1800      1     21     84      0.1000E-01       62.50    
   1801      1     21     85      0.1000E-01       62.50    
   1802      1     21     86      0.1000E-01       62.50    
   1803      1     21     87      0.1000E-01       62.50    
   1804      1     21     88      0.1000E-01       62.50    
   1805      1     21     89      0.1000E-01       62.50    
   1806      1     21     90      0.1000E-01       62.50    
   1807      1     21     91      0.1000E-01       62.50    
   1808      1     21     92      0.1000E-01       62.50    
   1809      1     21     93      0.1000E-01       62.50    
   1810      1     21     97      0.1000E-01       62.50    
   1811      1     21     98      0.1000E-01       62.50    
   1812      1     21     99      0.1000E-01       62.50    
   1813      1     21    172      0.1000E-01       62.50    
   1814      1     21    173      0.1000E-01       62.50    
   1815      1     21    190      0.1000E-01       62.50    
   1816      1     21    191      0.1000E-01       62.50    
   1817      1     21    192      0.1000E-01       62.50    
   1818      1     21    193      0.1000E-01       62.50    
   1819      1     21    194      0.1000E-01       62.50    
   1820      1     21    195      0.1000E-01       62.50    
   1821      1     21    196      0.1000E-01       62.50    
   1822      1     21    197      0.1000E-01       62.50    
   1823      1     21    198      0.1000E-01       62.50    
   1824      1     21    199      0.1000E-01       62.50    
   1825      1     22     51      0.1000E-01       62.50    
   1826      1     22     52      0.1000E-01       62.50    
   1827      1     22     53      0.1000E-01       62.50    
   1828      1     22     54      0.1000E-01       62.50    
   1829      1     22     55      0.1000E-01       62.50    
   1830      1     22     56      0.1000E-01       62.50    
   1831      1     22     57      0.1000E-01       62.50    
   1832      1     22     58      0.1000E-01       62.50    
   1833      1     22     59      0.1000E-01       62.50    
   1834      1     22     60      0.1000E-01       62.50    
   1835      1     22     61      0.1000E-01       62.50    
   1836      1     22     62      0.1000E-01       62.50    
   1837      1     22     63      0.1000E-01       62.50    
   1838      1     22     64      0.1000E-01       62.50    
   1839      1     22     65      0.1000E-01       62.50    
   1840      1     22     66      0.1000E-01       62.50    
   1841      1     22     67      0.1000E-01       62.50    
   1842      1     22     68      0.1000E-01       62.50    
   1843      1     22     69      0.1000E-01       62.50    
   1844      1     22     70      0.1000E-01       62.50    
   1845      1     22     71      0.1000E-01       62.50    
   1846      1     22     72      0.1000E-01       62.50    
   1847      1     22     73      0.1000E-01       62.50    
   1848      1     22     74      0.1000E-01       62.50    
   1849      1     22     75      0.1000E-01       62.50    
   1850      1     22     76      0.1000E-01       62.50    
   1851      1     22     77      0.1000E-01       62.50    
   1852      1     22     78      0.1000E-01       62.50    
   1853      1     22     79      0.1000E-01       62.50    
   1854      1     22     80      0.1000E-01       62.50    
   1855      1     22     81      0.1000E-01       62.50    
   1856      1     22     82      0.1000E-01       62.50    
   1857      1     22     83      0.1000E-01       62.50    
   1858      1     22     84      0.1000E-01       62.50    
   1859      1     22     85      0.1000E-01       62.50    
   1860      1     22     86      0.1000E-01       62.50    
   1861      1     22     87      0.1000E-01       62.50    
   1862      1     22     88      0.1000E-01       62.50    
   1863      1     22     89      0.1000E-01       62.50    
   1864      1     22     90      0.1000E-01       62.50    
   1865      1     22     91      0.1000E-01       62.50    
   1866      1     22     92      0.1000E-01       62.50    
   1867      1     22     93      0.1000E-01       62.50    
   1868      1     22    189      0.1000E-01       62.50    
   1869      1     22    190      0.1000E-01       62.50    
   1870      1     22    191      0.1000E-01       62.50    
   1871      1     22    192      0.1000E-01       62.50    
   1872      1     22    193      0.1000E-01       62.50    
   1873      1     22    194      0.1000E-01       62.50    
   1874      1     22    195      0.1000E-01       62.50    
   1875      1     22    196      0.1000E-01       62.50    
   1876      1     22    197      0.1000E-01       62.50    
   1877      1     22    198      0.1000E-01       62.50    
   1878      1     22    199      0.1000E-01       62.50    
   1879      1     23     49      0.1000E-01       62.50    
   1880      1     23     50      0.1000E-01       62.50    
   1881      1     23     51      0.1000E-01       62.50    
   1882      1     23     52      0.1000E-01       62.50    
   1883      1     23     53      0.1000E-01       62.50    
   1884      1     23     54      0.1000E-01       62.50    
   1885      1     23     55      0.1000E-01       62.50    
   1886      1     23     56      0.1000E-01       62.50    
   1887      1     23     57      0.1000E-01       62.50    
   1888      1     23     58      0.1000E-01       62.50    
   1889      1     23     59      0.1000E-01       62.50    
   1890      1     23     60      0.1000E-01       62.50    
   1891      1     23     61      0.1000E-01       62.50    
   1892      1     23     62      0.1000E-01       62.50    
   1893      1     23     63      0.1000E-01       62.50    
   1894      1     23     64      0.1000E-01       62.50    
   1895      1     23     65      0.1000E-01       62.50    
   1896      1     23     66      0.1000E-01       62.50    
   1897      1     23     67      0.1000E-01       62.50    
   1898      1     23     68      0.1000E-01       62.50    
   1899      1     23     69      0.1000E-01       62.50    
   1900      1     23     70      0.1000E-01       62.50    
   1901      1     23     71      0.1000E-01       62.50    
   1902      1     23     72      0.1000E-01       62.50    
   1903      1     23     73      0.1000E-01       62.50    
   1904      1     23     74      0.1000E-01       62.50    
   1905      1     23     75      0.1000E-01       62.50    
   1906      1     23     76      0.1000E-01       62.50    
   1907      1     23     77      0.1000E-01       62.50    
   1908      1     23     78      0.1000E-01       62.50    
   1909      1     23     79      0.1000E-01       62.50    
   1910      1     23     80      0.1000E-01       62.50    
   1911      1     23     81      0.1000E-01       62.50    
   1912      1     23     82      0.1000E-01       62.50    
   1913      1     23     83      0.1000E-01       62.50    
   1914      1     23     84      0.1000E-01       62.50    
   1915      1     23     85      0.1000E-01       62.50    
   1916      1     23     86      0.1000E-01       62.50    
   1917      1     23     87      0.1000E-01       62.50    
   1918      1     23     88      0.1000E-01       62.50    
   1919      1     23     89      0.1000E-01       62.50    
   1920      1     23     90      0.1000E-01       62.50    
   1921      1     23     91      0.1000E-01       62.50    
   1922      1     23     92      0.1000E-01       62.50    
   1923      1     23     93      0.1000E-01       62.50    
   1924      1     23    189      0.1000E-01       62.50    
   1925      1     23    190      0.1000E-01       62.50    
   1926      1     23    191      0.1000E-01       62.50    
   1927      1     23    192      0.1000E-01       62.50    
   1928      1     23    193      0.1000E-01       62.50    
   1929      1     23    194      0.1000E-01       62.50    
   1930      1     23    195      0.1000E-01       62.50    
   1931      1     23    196      0.1000E-01       62.50    
   1932      1     23    197      0.1000E-01       62.50    
   1933      1     23    198      0.1000E-01       62.50    
   1934      1     23    199      0.1000E-01       62.50    
   1935      1     24     47      0.1000E-01       62.50    
   1936      1     24     48      0.1000E-01       62.50    
   1937      1     24     49      0.1000E-01       62.50    
   1938      1     24     50      0.1000E-01       62.50    
   1939      1     24     51      0.1000E-01       62.50    
   1940      1     24     52      0.1000E-01       62.50    
   1941      1     24     53      0.1000E-01       62.50    
   1942      1     24     54      0.1000E-01       62.50    
   1943      1     24     55      0.1000E-01       62.50    
   1944      1     24     56      0.1000E-01       62.50    
   1945      1     24     57      0.1000E-01       62.50    
   1946      1     24     58      0.1000E-01       62.50    
   1947      1     24     59      0.1000E-01       62.50    
   1948      1     24     60      0.1000E-01       62.50    
   1949      1     24     61      0.1000E-01       62.50    
   1950      1     24     62      0.1000E-01       62.50    
   1951      1     24     63      0.1000E-01       62.50    
   1952      1     24     64      0.1000E-01       62.50    
   1953      1     24     65      0.1000E-01       62.50    
   1954      1     24     66      0.1000E-01       62.50    
   1955      1     24     67      0.1000E-01       62.50    
   1956      1     24     68      0.1000E-01       62.50    
   1957      1     24     69      0.1000E-01       62.50    
   1958      1     24     70      0.1000E-01       62.50    
   1959      1     24     71      0.1000E-01       62.50    
   1960      1     24     72      0.1000E-01       62.50    
   1961      1     24     73      0.1000E-01       62.50    
   1962      1     24     74      0.1000E-01       62.50    
   1963      1     24     75      0.1000E-01       62.50    
   1964      1     24     76      0.1000E-01       62.50    
   1965      1     24     77      0.1000E-01       62.50    
   1966      1     24     78      0.1000E-01       62.50    
   1967      1     24     79      0.1000E-01       62.50    
   1968      1     24     80      0.1000E-01       62.50    
   1969      1     24     81      0.1000E-01       62.50    
   1970      1     24     82      0.1000E-01       62.50    
   1971      1     24     83      0.1000E-01       62.50    
   1972      1     24     84      0.1000E-01       62.50    
   1973      1     24     85      0.1000E-01       62.50    
   1974      1     24     86      0.1000E-01       62.50    
   1975      1     24     87      0.1000E-01       62.50    
   1976      1     24     88      0.1000E-01       62.50    
   1977      1     24     89      0.1000E-01       62.50    
   1978      1     24     90      0.1000E-01       62.50    
   1979      1     24     91      0.1000E-01       62.50    
   1980      1     24     92      0.1000E-01       62.50    
   1981      1     24     93      0.1000E-01       62.50    
   1982      1     24    189      0.1000E-01       62.50    
   1983      1     24    190      0.1000E-01       62.50    
   1984      1     24    191      0.1000E-01       62.50    
   1985      1     24    192      0.1000E-01       62.50    
   1986      1     24    193      0.1000E-01       62.50    
   1987      1     24    194      0.1000E-01       62.50    
   1988      1     24    195      0.1000E-01       62.50    
   1989      1     24    196      0.1000E-01       62.50    
   1990      1     24    197      0.1000E-01       62.50    
   1991      1     24    198      0.1000E-01       62.50    
   1992      1     24    199      0.1000E-01       62.50    
   1993      1     25     45      0.1000E-01       62.50    
   1994      1     25     46      0.1000E-01       62.50    
   1995      1     25     47      0.1000E-01       62.50    
   1996      1     25     48      0.1000E-01       62.50    
   1997      1     25     49      0.1000E-01       62.50    
   1998      1     25     50      0.1000E-01       62.50    
   1999      1     25     51      0.1000E-01       62.50    
   2000      1     25     52      0.1000E-01       62.50    
   2001      1     25     53      0.1000E-01       62.50    
   2002      1     25     54      0.1000E-01       62.50    
   2003      1     25     55      0.1000E-01       62.50    
   2004      1     25     56      0.1000E-01       62.50    
   2005      1     25     57      0.1000E-01       62.50    
   2006      1     25     58      0.1000E-01       62.50    
   2007      1     25     59      0.1000E-01       62.50    
   2008      1     25     60      0.1000E-01       62.50    
   2009      1     25     61      0.1000E-01       62.50    
   2010      1     25     62      0.1000E-01       62.50    
   2011      1     25     63      0.1000E-01       62.50    
   2012      1     25     64      0.1000E-01       62.50    
   2013      1     25     65      0.1000E-01       62.50    
   2014      1     25     66      0.1000E-01       62.50    
   2015      1     25     67      0.1000E-01       62.50    
   2016      1     25     68      0.1000E-01       62.50    
   2017      1     25     69      0.1000E-01       62.50    
   2018      1     25     70      0.1000E-01       62.50    
   2019      1     25     71      0.1000E-01       62.50    
   2020      1     25     72      0.1000E-01       62.50    
   2021      1     25     73      0.1000E-01       62.50    
   2022      1     25     74      0.1000E-01       62.50    
   2023      1     25     75      0.1000E-01       62.50    
   2024      1     25     76      0.1000E-01       62.50    
   2025      1     25     77      0.1000E-01       62.50    
   2026      1     25     78      0.1000E-01       62.50    
   2027      1     25     79      0.1000E-01       62.50    
   2028      1     25     80      0.1000E-01       62.50    
   2029      1     25     81      0.1000E-01       62.50    
   2030      1     25     82      0.1000E-01       62.50    
   2031      1     25     83      0.1000E-01       62.50    
   2032      1     25     84      0.1000E-01       62.50    
   2033      1     25     85      0.1000E-01       62.50    
   2034      1     25     86      0.1000E-01       62.50    
   2035      1     25     87      0.1000E-01       62.50    
   2036      1     25     88      0.1000E-01       62.50    
   2037      1     25     89      0.1000E-01       62.50    
   2038      1     25     90      0.1000E-01       62.50    
   2039      1     25     91      0.1000E-01       62.50    
   2040      1     25    189      0.1000E-01       62.50    
   2041      1     25    190      0.1000E-01       62.50    
   2042      1     25    191      0.1000E-01       62.50    
   2043      1     25    192      0.1000E-01       62.50    
   2044      1     25    193      0.1000E-01       62.50    
   2045      1     25    194      0.1000E-01       62.50    
   2046      1     25    195      0.1000E-01       62.50    
   2047      1     25    196      0.1000E-01       62.50    
   2048      1     25    197      0.1000E-01       62.50    
   2049      1     25    198      0.1000E-01       62.50    
   2050      1     25    199      0.1000E-01       62.50    
   2051      1     26     43      0.1000E-01       62.50    
   2052      1     26     44      0.1000E-01       62.50    
   2053      1     26     45      0.1000E-01       62.50    
   2054      1     26     46      0.1000E-01       62.50    
   2055      1     26     47      0.1000E-01       62.50    
   2056      1     26     48      0.1000E-01       62.50    
   2057      1     26     49      0.1000E-01       62.50    
   2058      1     26     50      0.1000E-01       62.50    
   2059      1     26     51      0.1000E-01       62.50    
   2060      1     26     52      0.1000E-01       62.50    
   2061      1     26     53      0.1000E-01       62.50    
   2062      1     26     54      0.1000E-01       62.50    
   2063      1     26     55      0.1000E-01       62.50    
   2064      1     26     56      0.1000E-01       62.50    
   2065      1     26     57      0.1000E-01       62.50    
   2066      1     26     58      0.1000E-01       62.50    
   2067      1     26     59      0.1000E-01       62.50    
   2068      1     26     60      0.1000E-01       62.50    
   2069      1     26     61      0.1000E-01       62.50    
   2070      1     26     62      0.1000E-01       62.50    
   2071      1     26     63      0.1000E-01       62.50    
   2072      1     26     64      0.1000E-01       62.50    
   2073      1     26     65      0.1000E-01       62.50    
   2074      1     26     66      0.1000E-01       62.50    
   2075      1     26     67      0.1000E-01       62.50    
   2076      1     26     68      0.1000E-01       62.50    
   2077      1     26     69      0.1000E-01       62.50    
   2078      1     26     70      0.1000E-01       62.50    
   2079      1     26     71      0.1000E-01       62.50    
   2080      1     26     72      0.1000E-01       62.50    
   2081      1     26     73      0.1000E-01       62.50    
   2082      1     26     74      0.1000E-01       62.50    
   2083      1     26     75      0.1000E-01       62.50    
   2084      1     26     76      0.1000E-01       62.50    
   2085      1     26     77      0.1000E-01       62.50    
   2086      1     26     78      0.1000E-01       62.50    
   2087      1     26     79      0.1000E-01       62.50    
   2088      1     26     80      0.1000E-01       62.50    
   2089      1     26     81      0.1000E-01       62.50    
   2090      1     26     82      0.1000E-01       62.50    
   2091      1     26     83      0.1000E-01       62.50    
   2092      1     26     84      0.1000E-01       62.50    
   2093      1     26     85      0.1000E-01       62.50    
   2094      1     26     86      0.1000E-01       62.50    
   2095      1     26     87      0.1000E-01       62.50    
   2096      1     26     88      0.1000E-01       62.50    
   2097      1     26     89      0.1000E-01       62.50    
   2098      1     26     90      0.1000E-01       62.50    
   2099      1     26    113      0.1000E-01       62.50    
   2100      1     26    114      0.1000E-01       62.50    
   2101      1     26    115      0.1000E-01       62.50    
   2102      1     26    116      0.1000E-01       62.50    
   2103      1     26    117      0.1000E-01       62.50    
   2104      1     26    118      0.1000E-01       62.50    
   2105      1     26    156      0.1000E-01       62.50    
   2106      1     26    157      0.1000E-01       62.50    
   2107      1     26    158      0.1000E-01       62.50    
   2108      1     26    188      0.1000E-01       62.50    
   2109      1     26    189      0.1000E-01       62.50    
   2110      1     26    190      0.1000E-01       62.50    
   2111      1     26    191      0.1000E-01       62.50    
   2112      1     26    192      0.1000E-01       62.50    
   2113      1     26    193      0.1000E-01       62.50    
   2114      1     26    194      0.1000E-01       62.50    
   2115      1     26    195      0.1000E-01       62.50    
   2116      1     26    196      0.1000E-01       62.50    
   2117      1     26    197      0.1000E-01       62.50    
   2118      1     26    198      0.1000E-01       62.50    
   2119      1     26    199      0.1000E-01       62.50    
   2120      1     27     20      0.1000E-01       62.50    
   2121      1     27     21      0.1000E-01       62.50    
   2122      1     27     22      0.1000E-01       62.50    
   2123      1     27     23      0.1000E-01       62.50    
   2124      1     27     24      0.1000E-01       62.50    
   2125      1     27     25      0.1000E-01       62.50    
   2126      1     27     26      0.1000E-01       62.50    
   2127      1     27     41      0.1000E-01       62.50    
   2128      1     27     42      0.1000E-01       62.50    
   2129      1     27     43      0.1000E-01       62.50    
   2130      1     27     44      0.1000E-01       62.50    
   2131      1     27     45      0.1000E-01       62.50    
   2132      1     27     46      0.1000E-01       62.50    
   2133      1     27     47      0.1000E-01       62.50    
   2134      1     27     48      0.1000E-01       62.50    
   2135      1     27     49      0.1000E-01       62.50    
   2136      1     27     50      0.1000E-01       62.50    
   2137      1     27     51      0.1000E-01       62.50    
   2138      1     27     52      0.1000E-01       62.50    
   2139      1     27     53      0.1000E-01       62.50    
   2140      1     27     54      0.1000E-01       62.50    
   2141      1     27     55      0.1000E-01       62.50    
   2142      1     27     56      0.1000E-01       62.50    
   2143      1     27     57      0.1000E-01       62.50    
   2144      1     27     58      0.1000E-01       62.50    
   2145      1     27     59      0.1000E-01       62.50    
   2146      1     27     60      0.1000E-01       62.50    
   2147      1     27     61      0.1000E-01       62.50    
   2148      1     27     62      0.1000E-01       62.50    
   2149      1     27     63      0.1000E-01       62.50    
   2150      1     27     64      0.1000E-01       62.50    
   2151      1     27     65      0.1000E-01       62.50    
   2152      1     27     66      0.1000E-01       62.50    
   2153      1     27     67      0.1000E-01       62.50    
   2154      1     27     68      0.1000E-01       62.50    
   2155      1     27     69      0.1000E-01       62.50    
   2156      1     27     70      0.1000E-01       62.50    
   2157      1     27     71      0.1000E-01       62.50    
   2158      1     27     72      0.1000E-01       62.50    
   2159      1     27     73      0.1000E-01       62.50    
   2160      1     27     74      0.1000E-01       62.50    
   2161      1     27     75      0.1000E-01       62.50    
   2162      1     27     76      0.1000E-01       62.50    
   2163      1     27     77      0.1000E-01       62.50    
   2164      1     27     78      0.1000E-01       62.50    
   2165      1     27     79      0.1000E-01       62.50    
   2166      1     27     80      0.1000E-01       62.50    
   2167      1     27     81      0.1000E-01       62.50    
   2168      1     27     82      0.1000E-01       62.50    
   2169      1     27     83      0.1000E-01       62.50    
   2170      1     27     84      0.1000E-01       62.50    
   2171      1     27     85      0.1000E-01       62.50    
   2172      1     27     86      0.1000E-01       62.50    
   2173      1     27     87      0.1000E-01       62.50    
   2174      1     27     88      0.1000E-01       62.50    
   2175      1     27     89      0.1000E-01       62.50    
   2176      1     27    112      0.1000E-01       62.50    
   2177      1     27    113      0.1000E-01       62.50    
   2178      1     27    114      0.1000E-01       62.50    
   2179      1     27    115      0.1000E-01       62.50    
   2180      1     27    116      0.1000E-01       62.50    
   2181      1     27    117      0.1000E-01       62.50    
   2182      1     27    118      0.1000E-01       62.50    
   2183      1     27    119      0.1000E-01       62.50    
   2184      1     27    120      0.1000E-01       62.50    
   2185      1     27    121      0.1000E-01       62.50    
   2186      1     27    122      0.1000E-01       62.50    
   2187      1     27    123      0.1000E-01       62.50    
   2188      1     27    155      0.1000E-01       62.50    
   2189      1     27    156      0.1000E-01       62.50    
   2190      1     27    157      0.1000E-01       62.50    
   2191      1     27    158      0.1000E-01       62.50    
   2192      1     27    159      0.1000E-01       62.50    
   2193      1     27    160      0.1000E-01       62.50    
   2194      1     27    161      0.1000E-01       62.50    
   2195      1     27    188      0.1000E-01       62.50    
   2196      1     27    189      0.1000E-01       62.50    
   2197      1     27    190      0.1000E-01       62.50    
   2198      1     27    191      0.1000E-01       62.50    
   2199      1     27    192      0.1000E-01       62.50    
   2200      1     27    193      0.1000E-01       62.50    
   2201      1     27    194      0.1000E-01       62.50    
   2202      1     27    195      0.1000E-01       62.50    
   2203      1     27    196      0.1000E-01       62.50    
   2204      1     27    197      0.1000E-01       62.50    
   2205      1     27    198      0.1000E-01       62.50    
   2206      1     27    199      0.1000E-01       62.50    
   2207      1     28     15      0.1000E-01       62.50    
   2208      1     28     16      0.1000E-01       62.50    
   2209      1     28     17      0.1000E-01       62.50    
   2210      1     28     18      0.1000E-01       62.50    
   2211      1     28     19      0.1000E-01       62.50    
   2212      1     28     20      0.1000E-01       62.50    
   2213      1     28     21      0.1000E-01       62.50    
   2214      1     28     22      0.1000E-01       62.50    
   2215      1     28     23      0.1000E-01       62.50    
   2216      1     28     24      0.1000E-01       62.50    
   2217      1     28     25      0.1000E-01       62.50    
   2218      1     28     26      0.1000E-01       62.50    
   2219      1     28     27      0.1000E-01       62.50    
   2220      1     28     28      0.1000E-01       62.50    
   2221      1     28     29      0.1000E-01       62.50    
   2222      1     28     30      0.1000E-01       62.50    
   2223      1     28     31      0.1000E-01       62.50    
   2224      1     28     32      0.1000E-01       62.50    
   2225      1     28     33      0.1000E-01       62.50    
   2226      1     28     39      0.1000E-01       62.50    
   2227      1     28     40      0.1000E-01       62.50    
   2228      1     28     41      0.1000E-01       62.50    
   2229      1     28     42      0.1000E-01       62.50    
   2230      1     28     43      0.1000E-01       62.50    
   2231      1     28     44      0.1000E-01       62.50    
   2232      1     28     45      0.1000E-01       62.50    
   2233      1     28     46      0.1000E-01       62.50    
   2234      1     28     47      0.1000E-01       62.50    
   2235      1     28     48      0.1000E-01       62.50    
   2236      1     28     49      0.1000E-01       62.50    
   2237      1     28     50      0.1000E-01       62.50    
   2238      1     28     51      0.1000E-01       62.50    
   2239      1     28     52      0.1000E-01       62.50    
   2240      1     28     53      0.1000E-01       62.50    
   2241      1     28     54      0.1000E-01       62.50    
   2242      1     28     55      0.1000E-01       62.50    
   2243      1     28     56      0.1000E-01       62.50    
   2244      1     28     57      0.1000E-01       62.50    
   2245      1     28     58      0.1000E-01       62.50    
   2246      1     28     59      0.1000E-01       62.50    
   2247      1     28     60      0.1000E-01       62.50    
   2248      1     28     61      0.1000E-01       62.50    
   2249      1     28     62      0.1000E-01       62.50    
   2250      1     28     63      0.1000E-01       62.50    
   2251      1     28     64      0.1000E-01       62.50    
   2252      1     28     65      0.1000E-01       62.50    
   2253      1     28     66      0.1000E-01       62.50    
   2254      1     28     67      0.1000E-01       62.50    
   2255      1     28     68      0.1000E-01       62.50    
   2256      1     28     69      0.1000E-01       62.50    
   2257      1     28     70      0.1000E-01       62.50    
   2258      1     28     71      0.1000E-01       62.50    
   2259      1     28     72      0.1000E-01       62.50    
   2260      1     28     73      0.1000E-01       62.50    
   2261      1     28     74      0.1000E-01       62.50    
   2262      1     28     75      0.1000E-01       62.50    
   2263      1     28     76      0.1000E-01       62.50    
   2264      1     28     77      0.1000E-01       62.50    
   2265      1     28     78      0.1000E-01       62.50    
   2266      1     28     79      0.1000E-01       62.50    
   2267      1     28     80      0.1000E-01       62.50    
   2268      1     28     81      0.1000E-01       62.50    
   2269      1     28     82      0.1000E-01       62.50    
   2270      1     28     83      0.1000E-01       62.50    
   2271      1     28     84      0.1000E-01       62.50    
   2272      1     28     85      0.1000E-01       62.50    
   2273      1     28     86      0.1000E-01       62.50    
   2274      1     28     87      0.1000E-01       62.50    
   2275      1     28     88      0.1000E-01       62.50    
   2276      1     28    103      0.1000E-01       62.50    
   2277      1     28    104      0.1000E-01       62.50    
   2278      1     28    105      0.1000E-01       62.50    
   2279      1     28    106      0.1000E-01       62.50    
   2280      1     28    107      0.1000E-01       62.50    
   2281      1     28    108      0.1000E-01       62.50    
   2282      1     28    109      0.1000E-01       62.50    
   2283      1     28    110      0.1000E-01       62.50    
   2284      1     28    111      0.1000E-01       62.50    
   2285      1     28    112      0.1000E-01       62.50    
   2286      1     28    113      0.1000E-01       62.50    
   2287      1     28    114      0.1000E-01       62.50    
   2288      1     28    115      0.1000E-01       62.50    
   2289      1     28    116      0.1000E-01       62.50    
   2290      1     28    117      0.1000E-01       62.50    
   2291      1     28    118      0.1000E-01       62.50    
   2292      1     28    119      0.1000E-01       62.50    
   2293      1     28    120      0.1000E-01       62.50    
   2294      1     28    121      0.1000E-01       62.50    
   2295      1     28    122      0.1000E-01       62.50    
   2296      1     28    123      0.1000E-01       62.50    
   2297      1     28    124      0.1000E-01       62.50    
   2298      1     28    151      0.1000E-01       62.50    
   2299      1     28    152      0.1000E-01       62.50    
   2300      1     28    153      0.1000E-01       62.50    
   2301      1     28    154      0.1000E-01       62.50    
   2302      1     28    155      0.1000E-01       62.50    
   2303      1     28    156      0.1000E-01       62.50    
   2304      1     28    157      0.1000E-01       62.50    
   2305      1     28    158      0.1000E-01       62.50    
   2306      1     28    159      0.1000E-01       62.50    
   2307      1     28    160      0.1000E-01       62.50    
   2308      1     28    161      0.1000E-01       62.50    
   2309      1     28    182      0.1000E-01       62.50    
   2310      1     28    183      0.1000E-01       62.50    
   2311      1     28    184      0.1000E-01       62.50    
   2312      1     28    185      0.1000E-01       62.50    
   2313      1     28    186      0.1000E-01       62.50    
   2314      1     28    187      0.1000E-01       62.50    
   2315      1     28    188      0.1000E-01       62.50    
   2316      1     28    189      0.1000E-01       62.50    
   2317      1     28    190      0.1000E-01       62.50    
   2318      1     28    191      0.1000E-01       62.50    
   2319      1     28    192      0.1000E-01       62.50    
   2320      1     28    193      0.1000E-01       62.50    
   2321      1     28    194      0.1000E-01       62.50    
   2322      1     28    195      0.1000E-01       62.50    
   2323      1     28    196      0.1000E-01       62.50    
   2324      1     28    197      0.1000E-01       62.50    
   2325      1     28    198      0.1000E-01       62.50    
   2326      1     28    199      0.1000E-01       62.50    
   2327      1     29      2      0.1000E-01       62.50    
   2328      1     29      3      0.1000E-01       62.50    
   2329      1     29      4      0.1000E-01       62.50    
   2330      1     29     10      0.1000E-01       62.50    
   2331      1     29     11      0.1000E-01       62.50    
   2332      1     29     12      0.1000E-01       62.50    
   2333      1     29     13      0.1000E-01       62.50    
   2334      1     29     14      0.1000E-01       62.50    
   2335      1     29     15      0.1000E-01       62.50    
   2336      1     29     16      0.1000E-01       62.50    
   2337      1     29     17      0.1000E-01       62.50    
   2338      1     29     18      0.1000E-01       62.50    
   2339      1     29     19      0.1000E-01       62.50    
   2340      1     29     20      0.1000E-01       62.50    
   2341      1     29     21      0.1000E-01       62.50    
   2342      1     29     22      0.1000E-01       62.50    
   2343      1     29     23      0.1000E-01       62.50    
   2344      1     29     24      0.1000E-01       62.50    
   2345      1     29     25      0.1000E-01       62.50    
   2346      1     29     26      0.1000E-01       62.50    
   2347      1     29     27      0.1000E-01       62.50    
   2348      1     29     28      0.1000E-01       62.50    
   2349      1     29     29      0.1000E-01       62.50    
   2350      1     29     30      0.1000E-01       62.50    
   2351      1     29     31      0.1000E-01       62.50    
   2352      1     29     32      0.1000E-01       62.50    
   2353      1     29     33      0.1000E-01       62.50    
   2354      1     29     34      0.1000E-01       62.50    
   2355      1     29     35      0.1000E-01       62.50    
   2356      1     29     36      0.1000E-01       62.50    
   2357      1     29     37      0.1000E-01       62.50    
   2358      1     29     38      0.1000E-01       62.50    
   2359      1     29     39      0.1000E-01       62.50    
   2360      1     29     40      0.1000E-01       62.50    
   2361      1     29     41      0.1000E-01       62.50    
   2362      1     29     42      0.1000E-01       62.50    
   2363      1     29     43      0.1000E-01       62.50    
   2364      1     29     44      0.1000E-01       62.50    
   2365      1     29     45      0.1000E-01       62.50    
   2366      1     29     46      0.1000E-01       62.50    
   2367      1     29     47      0.1000E-01       62.50    
   2368      1     29     48      0.1000E-01       62.50    
   2369      1     29     49      0.1000E-01       62.50    
   2370      1     29     50      0.1000E-01       62.50    
   2371      1     29     51      0.1000E-01       62.50    
   2372      1     29     52      0.1000E-01       62.50    
   2373      1     29     53      0.1000E-01       62.50    
   2374      1     29     54      0.1000E-01       62.50    
   2375      1     29     55      0.1000E-01       62.50    
   2376      1     29     56      0.1000E-01       62.50    
   2377      1     29     57      0.1000E-01       62.50    
   2378      1     29     58      0.1000E-01       62.50    
   2379      1     29     59      0.1000E-01       62.50    
   2380      1     29     60      0.1000E-01       62.50    
   2381      1     29     61      0.1000E-01       62.50    
   2382      1     29     62      0.1000E-01       62.50    
   2383      1     29     63      0.1000E-01       62.50    
   2384      1     29     64      0.1000E-01       62.50    
   2385      1     29     65      0.1000E-01       62.50    
   2386      1     29     66      0.1000E-01       62.50    
   2387      1     29     67      0.1000E-01       62.50    
   2388      1     29     68      0.1000E-01       62.50    
   2389      1     29     69      0.1000E-01       62.50    
   2390      1     29     70      0.1000E-01       62.50    
   2391      1     29     71      0.1000E-01       62.50    
   2392      1     29     72      0.1000E-01       62.50    
   2393      1     29     73      0.1000E-01       62.50    
   2394      1     29     74      0.1000E-01       62.50    
   2395      1     29     75      0.1000E-01       62.50    
   2396      1     29     76      0.1000E-01       62.50    
   2397      1     29     77      0.1000E-01       62.50    
   2398      1     29     78      0.1000E-01       62.50    
   2399      1     29     79      0.1000E-01       62.50    
   2400      1     29     80      0.1000E-01       62.50    
   2401      1     29     81      0.1000E-01       62.50    
   2402      1     29     82      0.1000E-01       62.50    
   2403      1     29     83      0.1000E-01       62.50    
   2404      1     29     84      0.1000E-01       62.50    
   2405      1     29     85      0.1000E-01       62.50    
   2406      1     29     86      0.1000E-01       62.50    
   2407      1     29     87      0.1000E-01       62.50    
   2408      1     29    103      0.1000E-01       62.50    
   2409      1     29    104      0.1000E-01       62.50    
   2410      1     29    105      0.1000E-01       62.50    
   2411      1     29    106      0.1000E-01       62.50    
   2412      1     29    107      0.1000E-01       62.50    
   2413      1     29    108      0.1000E-01       62.50    
   2414      1     29    109      0.1000E-01       62.50    
   2415      1     29    110      0.1000E-01       62.50    
   2416      1     29    111      0.1000E-01       62.50    
   2417      1     29    112      0.1000E-01       62.50    
   2418      1     29    113      0.1000E-01       62.50    
   2419      1     29    114      0.1000E-01       62.50    
   2420      1     29    115      0.1000E-01       62.50    
   2421      1     29    116      0.1000E-01       62.50    
   2422      1     29    117      0.1000E-01       62.50    
   2423      1     29    118      0.1000E-01       62.50    
   2424      1     29    119      0.1000E-01       62.50    
   2425      1     29    120      0.1000E-01       62.50    
   2426      1     29    121      0.1000E-01       62.50    
   2427      1     29    122      0.1000E-01       62.50    
   2428      1     29    123      0.1000E-01       62.50    
   2429      1     29    124      0.1000E-01       62.50    
   2430      1     29    151      0.1000E-01       62.50    
   2431      1     29    152      0.1000E-01       62.50    
   2432      1     29    153      0.1000E-01       62.50    
   2433      1     29    154      0.1000E-01       62.50    
   2434      1     29    155      0.1000E-01       62.50    
   2435      1     29    156      0.1000E-01       62.50    
   2436      1     29    157      0.1000E-01       62.50    
   2437      1     29    158      0.1000E-01       62.50    
   2438      1     29    159      0.1000E-01       62.50    
   2439      1     29    160      0.1000E-01       62.50    
   2440      1     29    161      0.1000E-01       62.50    
   2441      1     29    162      0.1000E-01       62.50    
   2442      1     29    176      0.1000E-01       62.50    
   2443      1     29    177      0.1000E-01       62.50    
   2444      1     29    181      0.1000E-01       62.50    
   2445      1     29    182      0.1000E-01       62.50    
   2446      1     29    183      0.1000E-01       62.50    
   2447      1     29    184      0.1000E-01       62.50    
   2448      1     29    185      0.1000E-01       62.50    
   2449      1     29    186      0.1000E-01       62.50    
   2450      1     29    187      0.1000E-01       62.50    
   2451      1     29    188      0.1000E-01       62.50    
   2452      1     29    189      0.1000E-01       62.50    
   2453      1     29    190      0.1000E-01       62.50    
   2454      1     29    191      0.1000E-01       62.50    
   2455      1     29    192      0.1000E-01       62.50    
   2456      1     29    193      0.1000E-01       62.50    
   2457      1     29    194      0.1000E-01       62.50    
   2458      1     29    195      0.1000E-01       62.50    
   2459      1     29    196      0.1000E-01       62.50    
   2460      1     29    197      0.1000E-01       62.50    
   2461      1     29    198      0.1000E-01       62.50    
   2462      1     29    199      0.1000E-01       62.50    
   2463      1     30      2      0.1000E-01       62.50    
   2464      1     30      3      0.1000E-01       62.50    
   2465      1     30      4      0.1000E-01       62.50    
   2466      1     30      5      0.1000E-01       62.50    
   2467      1     30      6      0.1000E-01       62.50    
   2468      1     30      7      0.1000E-01       62.50    
   2469      1     30      8      0.1000E-01       62.50    
   2470      1     30      9      0.1000E-01       62.50    
   2471      1     30     10      0.1000E-01       62.50    
   2472      1     30     11      0.1000E-01       62.50    
   2473      1     30     12      0.1000E-01       62.50    
   2474      1     30     13      0.1000E-01       62.50    
   2475      1     30     14      0.1000E-01       62.50    
   2476      1     30     15      0.1000E-01       62.50    
   2477      1     30     16      0.1000E-01       62.50    
   2478      1     30     17      0.1000E-01       62.50    
   2479      1     30     18      0.1000E-01       62.50    
   2480      1     30     19      0.1000E-01       62.50    
   2481      1     30     20      0.1000E-01       62.50    
   2482      1     30     21      0.1000E-01       62.50    
   2483      1     30     22      0.1000E-01       62.50    
   2484      1     30     23      0.1000E-01       62.50    
   2485      1     30     24      0.1000E-01       62.50    
   2486      1     30     25      0.1000E-01       62.50    
   2487      1     30     26      0.1000E-01       62.50    
   2488      1     30     27      0.1000E-01       62.50    
   2489      1     30     28      0.1000E-01       62.50    
   2490      1     30     29      0.1000E-01       62.50    
   2491      1     30     30      0.1000E-01       62.50    
   2492      1     30     31      0.1000E-01       62.50    
   2493      1     30     32      0.1000E-01       62.50    
   2494      1     30     33      0.1000E-01       62.50    
   2495      1     30     34      0.1000E-01       62.50    
   2496      1     30     35      0.1000E-01       62.50    
   2497      1     30     36      0.1000E-01       62.50    
   2498      1     30     37      0.1000E-01       62.50    
   2499      1     30     38      0.1000E-01       62.50    
   2500      1     30     39      0.1000E-01       62.50    
   2501      1     30     40      0.1000E-01       62.50    
   2502      1     30     41      0.1000E-01       62.50    
   2503      1     30     42      0.1000E-01       62.50    
   2504      1     30     43      0.1000E-01       62.50    
   2505      1     30     44      0.1000E-01       62.50    
   2506      1     30     45      0.1000E-01       62.50    
   2507      1     30     46      0.1000E-01       62.50    
   2508      1     30     47      0.1000E-01       62.50    
   2509      1     30     48      0.1000E-01       62.50    
   2510      1     30     49      0.1000E-01       62.50    
   2511      1     30     50      0.1000E-01       62.50    
   2512      1     30     51      0.1000E-01       62.50    
   2513      1     30     52      0.1000E-01       62.50    
   2514      1     30     53      0.1000E-01       62.50    
   2515      1     30     54      0.1000E-01       62.50    
   2516      1     30     55      0.1000E-01       62.50    
   2517      1     30     56      0.1000E-01       62.50    
   2518      1     30     57      0.1000E-01       62.50    
   2519      1     30     58      0.1000E-01       62.50    
   2520      1     30     59      0.1000E-01       62.50    
   2521      1     30     60      0.1000E-01       62.50    
   2522      1     30     61      0.1000E-01       62.50    
   2523      1     30     62      0.1000E-01       62.50    
   2524      1     30     63      0.1000E-01       62.50    
   2525      1     30     64      0.1000E-01       62.50    
   2526      1     30     65      0.1000E-01       62.50    
   2527      1     30     66      0.1000E-01       62.50    
   2528      1     30     67      0.1000E-01       62.50    
   2529      1     30     68      0.1000E-01       62.50    
   2530      1     30     69      0.1000E-01       62.50    
   2531      1     30     70      0.1000E-01       62.50    
   2532      1     30     71      0.1000E-01       62.50    
   2533      1     30     72      0.1000E-01       62.50    
   2534      1     30     73      0.1000E-01       62.50    
   2535      1     30     74      0.1000E-01       62.50    
   2536      1     30     75      0.1000E-01       62.50    
   2537      1     30     76      0.1000E-01       62.50    
   2538      1     30     77      0.1000E-01       62.50    
   2539      1     30     78      0.1000E-01       62.50    
   2540      1     30     79      0.1000E-01       62.50    
   2541      1     30     80      0.1000E-01       62.50    
   2542      1     30     81      0.1000E-01       62.50    
   2543      1     30     82      0.1000E-01       62.50    
   2544      1     30     83      0.1000E-01       62.50    
   2545      1     30     84      0.1000E-01       62.50    
   2546      1     30     85      0.1000E-01       62.50    
   2547      1     30     86      0.1000E-01       62.50    
   2548      1     30     87      0.1000E-01       62.50    
   2549      1     30    107      0.1000E-01       62.50    
   2550      1     30    108      0.1000E-01       62.50    
   2551      1     30    109      0.1000E-01       62.50    
   2552      1     30    110      0.1000E-01       62.50    
   2553      1     30    111      0.1000E-01       62.50    
   2554      1     30    112      0.1000E-01       62.50    
   2555      1     30    113      0.1000E-01       62.50    
   2556      1     30    114      0.1000E-01       62.50    
   2557      1     30    115      0.1000E-01       62.50    
   2558      1     30    116      0.1000E-01       62.50    
   2559      1     30    117      0.1000E-01       62.50    
   2560      1     30    118      0.1000E-01       62.50    
   2561      1     30    119      0.1000E-01       62.50    
   2562      1     30    120      0.1000E-01       62.50    
   2563      1     30    121      0.1000E-01       62.50    
   2564      1     30    122      0.1000E-01       62.50    
   2565      1     30    123      0.1000E-01       62.50    
   2566      1     30    124      0.1000E-01       62.50    
   2567      1     30    150      0.1000E-01       62.50    
   2568      1     30    151      0.1000E-01       62.50    
   2569      1     30    152      0.1000E-01       62.50    
   2570      1     30    153      0.1000E-01       62.50    
   2571      1     30    154      0.1000E-01       62.50    
   2572      1     30    155      0.1000E-01       62.50    
   2573      1     30    156      0.1000E-01       62.50    
   2574      1     30    157      0.1000E-01       62.50    
   2575      1     30    158      0.1000E-01       62.50    
   2576      1     30    159      0.1000E-01       62.50    
   2577      1     30    160      0.1000E-01       62.50    
   2578      1     30    161      0.1000E-01       62.50    
   2579      1     30    162      0.1000E-01       62.50    
   2580      1     30    163      0.1000E-01       62.50    
   2581      1     30    175      0.1000E-01       62.50    
   2582      1     30    176      0.1000E-01       62.50    
   2583      1     30    177      0.1000E-01       62.50    
   2584      1     30    178      0.1000E-01       62.50    
   2585      1     30    179      0.1000E-01       62.50    
   2586      1     30    180      0.1000E-01       62.50    
   2587      1     30    181      0.1000E-01       62.50    
   2588      1     30    182      0.1000E-01       62.50    
   2589      1     30    183      0.1000E-01       62.50    
   2590      1     30    184      0.1000E-01       62.50    
   2591      1     30    185      0.1000E-01       62.50    
   2592      1     30    186      0.1000E-01       62.50    
   2593      1     30    187      0.1000E-01       62.50    
   2594      1     30    188      0.1000E-01       62.50    
   2595      1     30    189      0.1000E-01       62.50    
   2596      1     30    190      0.1000E-01       62.50    
   2597      1     30    191      0.1000E-01       62.50    
   2598      1     30    192      0.1000E-01       62.50    
   2599      1     30    193      0.1000E-01       62.50    
   2600      1     30    194      0.1000E-01       62.50    
   2601      1     30    195      0.1000E-01       62.50    
   2602      1     30    196      0.1000E-01       62.50    
   2603      1     30    197      0.1000E-01       62.50    
   2604      1     30    198      0.1000E-01       62.50    
   2605      1     30    199      0.1000E-01       62.50    
   2606      1     31      2      0.1000E-01       62.50    
   2607      1     31      3      0.1000E-01       62.50    
   2608      1     31      4      0.1000E-01       62.50    
   2609      1     31      5      0.1000E-01       62.50    
   2610      1     31      6      0.1000E-01       62.50    
   2611      1     31      7      0.1000E-01       62.50    
   2612      1     31      8      0.1000E-01       62.50    
   2613      1     31      9      0.1000E-01       62.50    
   2614      1     31     10      0.1000E-01       62.50    
   2615      1     31     11      0.1000E-01       62.50    
   2616      1     31     12      0.1000E-01       62.50    
   2617      1     31     13      0.1000E-01       62.50    
   2618      1     31     14      0.1000E-01       62.50    
   2619      1     31     15      0.1000E-01       62.50    
   2620      1     31     16      0.1000E-01       62.50    
   2621      1     31     17      0.1000E-01       62.50    
   2622      1     31     18      0.1000E-01       62.50    
   2623      1     31     19      0.1000E-01       62.50    
   2624      1     31     20      0.1000E-01       62.50    
   2625      1     31     21      0.1000E-01       62.50    
   2626      1     31     22      0.1000E-01       62.50    
   2627      1     31     23      0.1000E-01       62.50    
   2628      1     31     24      0.1000E-01       62.50    
   2629      1     31     25      0.1000E-01       62.50    
   2630      1     31     26      0.1000E-01       62.50    
   2631      1     31     27      0.1000E-01       62.50    
   2632      1     31     28      0.1000E-01       62.50    
   2633      1     31     29      0.1000E-01       62.50    
   2634      1     31     30      0.1000E-01       62.50    
   2635      1     31     31      0.1000E-01       62.50    
   2636      1     31     32      0.1000E-01       62.50    
   2637      1     31     33      0.1000E-01       62.50    
   2638      1     31     34      0.1000E-01       62.50    
   2639      1     31     35      0.1000E-01       62.50    
   2640      1     31     36      0.1000E-01       62.50    
   2641      1     31     37      0.1000E-01       62.50    
   2642      1     31     38      0.1000E-01       62.50    
   2643      1     31     39      0.1000E-01       62.50    
   2644      1     31     40      0.1000E-01       62.50    
   2645      1     31     41      0.1000E-01       62.50    
   2646      1     31     42      0.1000E-01       62.50    
   2647      1     31     43      0.1000E-01       62.50    
   2648      1     31     44      0.1000E-01       62.50    
   2649      1     31     45      0.1000E-01       62.50    
   2650      1     31     46      0.1000E-01       62.50    
   2651      1     31     47      0.1000E-01       62.50    
   2652      1     31     48      0.1000E-01       62.50    
   2653      1     31     49      0.1000E-01       62.50    
   2654      1     31     50      0.1000E-01       62.50    
   2655      1     31     51      0.1000E-01       62.50    
   2656      1     31     52      0.1000E-01       62.50    
   2657      1     31     53      0.1000E-01       62.50    
   2658      1     31     54      0.1000E-01       62.50    
   2659      1     31     55      0.1000E-01       62.50    
   2660      1     31     56      0.1000E-01       62.50    
   2661      1     31     57      0.1000E-01       62.50    
   2662      1     31     58      0.1000E-01       62.50    
   2663      1     31     59      0.1000E-01       62.50    
   2664      1     31     60      0.1000E-01       62.50    
   2665      1     31     61      0.1000E-01       62.50    
   2666      1     31     62      0.1000E-01       62.50    
   2667      1     31     63      0.1000E-01       62.50    
   2668      1     31     64      0.1000E-01       62.50    
   2669      1     31     65      0.1000E-01       62.50    
   2670      1     31     66      0.1000E-01       62.50    
   2671      1     31     67      0.1000E-01       62.50    
   2672      1     31     68      0.1000E-01       62.50    
   2673      1     31     69      0.1000E-01       62.50    
   2674      1     31     70      0.1000E-01       62.50    
   2675      1     31     71      0.1000E-01       62.50    
   2676      1     31     72      0.1000E-01       62.50    
   2677      1     31     73      0.1000E-01       62.50    
   2678      1     31     74      0.1000E-01       62.50    
   2679      1     31     75      0.1000E-01       62.50    
   2680      1     31     76      0.1000E-01       62.50    
   2681      1     31     77      0.1000E-01       62.50    
   2682      1     31     78      0.1000E-01       62.50    
   2683      1     31     79      0.1000E-01       62.50    
   2684      1     31     80      0.1000E-01       62.50    
   2685      1     31     81      0.1000E-01       62.50    
   2686      1     31     82      0.1000E-01       62.50    
   2687      1     31     83      0.1000E-01       62.50    
   2688      1     31     84      0.1000E-01       62.50    
   2689      1     31     85      0.1000E-01       62.50    
   2690      1     31     86      0.1000E-01       62.50    
   2691      1     31     87      0.1000E-01       62.50    
   2692      1     31    108      0.1000E-01       62.50    
   2693      1     31    109      0.1000E-01       62.50    
   2694      1     31    115      0.1000E-01       62.50    
   2695      1     31    116      0.1000E-01       62.50    
   2696      1     31    117      0.1000E-01       62.50    
   2697      1     31    118      0.1000E-01       62.50    
   2698      1     31    119      0.1000E-01       62.50    
   2699      1     31    120      0.1000E-01       62.50    
   2700      1     31    121      0.1000E-01       62.50    
   2701      1     31    122      0.1000E-01       62.50    
   2702      1     31    123      0.1000E-01       62.50    
   2703      1     31    149      0.1000E-01       62.50    
   2704      1     31    150      0.1000E-01       62.50    
   2705      1     31    151      0.1000E-01       62.50    
   2706      1     31    152      0.1000E-01       62.50    
   2707      1     31    153      0.1000E-01       62.50    
   2708      1     31    154      0.1000E-01       62.50    
   2709      1     31    155      0.1000E-01       62.50    
   2710      1     31    156      0.1000E-01       62.50    
   2711      1     31    157      0.1000E-01       62.50    
   2712      1     31    158      0.1000E-01       62.50    
   2713      1     31    159      0.1000E-01       62.50    
   2714      1     31    160      0.1000E-01       62.50    
   2715      1     31    161      0.1000E-01       62.50    
   2716      1     31    162      0.1000E-01       62.50    
   2717      1     31    163      0.1000E-01       62.50    
   2718      1     31    175      0.1000E-01       62.50    
   2719      1     31    176      0.1000E-01       62.50    
   2720      1     31    177      0.1000E-01       62.50    
   2721      1     31    178      0.1000E-01       62.50    
   2722      1     31    179      0.1000E-01       62.50    
   2723      1     31    180      0.1000E-01       62.50    
   2724      1     31    181      0.1000E-01       62.50    
   2725      1     31    182      0.1000E-01       62.50    
   2726      1     31    183      0.1000E-01       62.50    
   2727      1     31    184      0.1000E-01       62.50    
   2728      1     31    185      0.1000E-01       62.50    
   2729      1     31    186      0.1000E-01       62.50    
   2730      1     31    187      0.1000E-01       62.50    
   2731      1     31    188      0.1000E-01       62.50    
   2732      1     31    189      0.1000E-01       62.50    
   2733      1     31    190      0.1000E-01       62.50    
   2734      1     31    191      0.1000E-01       62.50    
   2735      1     31    192      0.1000E-01       62.50    
   2736      1     31    193      0.1000E-01       62.50    
   2737      1     31    194      0.1000E-01       62.50    
   2738      1     31    195      0.1000E-01       62.50    
   2739      1     31    196      0.1000E-01       62.50    
   2740      1     31    197      0.1000E-01       62.50    
   2741      1     31    198      0.1000E-01       62.50    
   2742      1     31    199      0.1000E-01       62.50    
   2743      1     32      2      0.1000E-01       62.50    
   2744      1     32      3      0.1000E-01       62.50    
   2745      1     32      4      0.1000E-01       62.50    
   2746      1     32      5      0.1000E-01       62.50    
   2747      1     32      6      0.1000E-01       62.50    
   2748      1     32      7      0.1000E-01       62.50    
   2749      1     32      8      0.1000E-01       62.50    
   2750      1     32      9      0.1000E-01       62.50    
   2751      1     32     10      0.1000E-01       62.50    
   2752      1     32     11      0.1000E-01       62.50    
   2753      1     32     12      0.1000E-01       62.50    
   2754      1     32     13      0.1000E-01       62.50    
   2755      1     32     14      0.1000E-01       62.50    
   2756      1     32     15      0.1000E-01       62.50    
   2757      1     32     16      0.1000E-01       62.50    
   2758      1     32     17      0.1000E-01       62.50    
   2759      1     32     18      0.1000E-01       62.50    
   2760      1     32     19      0.1000E-01       62.50    
   2761      1     32     20      0.1000E-01       62.50    
   2762      1     32     21      0.1000E-01       62.50    
   2763      1     32     22      0.1000E-01       62.50    
   2764      1     32     23      0.1000E-01       62.50    
   2765      1     32     24      0.1000E-01       62.50    
   2766      1     32     25      0.1000E-01       62.50    
   2767      1     32     26      0.1000E-01       62.50    
   2768      1     32     27      0.1000E-01       62.50    
   2769      1     32     28      0.1000E-01       62.50    
   2770      1     32     29      0.1000E-01       62.50    
   2771      1     32     30      0.1000E-01       62.50    
   2772      1     32     31      0.1000E-01       62.50    
   2773      1     32     32      0.1000E-01       62.50    
   2774      1     32     33      0.1000E-01       62.50    
   2775      1     32     34      0.1000E-01       62.50    
   2776      1     32     35      0.1000E-01       62.50    
   2777      1     32     36      0.1000E-01       62.50    
   2778      1     32     37      0.1000E-01       62.50    
   2779      1     32     38      0.1000E-01       62.50    
   2780      1     32     39      0.1000E-01       62.50    
   2781      1     32     40      0.1000E-01       62.50    
   2782      1     32     41      0.1000E-01       62.50    
   2783      1     32     42      0.1000E-01       62.50    
   2784      1     32     43      0.1000E-01       62.50    
   2785      1     32     44      0.1000E-01       62.50    
   2786      1     32     45      0.1000E-01       62.50    
   2787      1     32     46      0.1000E-01       62.50    
   2788      1     32     47      0.1000E-01       62.50    
   2789      1     32     48      0.1000E-01       62.50    
   2790      1     32     49      0.1000E-01       62.50    
   2791      1     32     50      0.1000E-01       62.50    
   2792      1     32     51      0.1000E-01       62.50    
   2793      1     32     52      0.1000E-01       62.50    
   2794      1     32     53      0.1000E-01       62.50    
   2795      1     32     54      0.1000E-01       62.50    
   2796      1     32     55      0.1000E-01       62.50    
   2797      1     32     56      0.1000E-01       62.50    
   2798      1     32     57      0.1000E-01       62.50    
   2799      1     32     58      0.1000E-01       62.50    
   2800      1     32     59      0.1000E-01       62.50    
   2801      1     32     60      0.1000E-01       62.50    
   2802      1     32     61      0.1000E-01       62.50    
   2803      1     32     62      0.1000E-01       62.50    
   2804      1     32     63      0.1000E-01       62.50    
   2805      1     32     64      0.1000E-01       62.50    
   2806      1     32     65      0.1000E-01       62.50    
   2807      1     32     66      0.1000E-01       62.50    
   2808      1     32     67      0.1000E-01       62.50    
   2809      1     32     68      0.1000E-01       62.50    
   2810      1     32     69      0.1000E-01       62.50    
   2811      1     32     70      0.1000E-01       62.50    
   2812      1     32     71      0.1000E-01       62.50    
   2813      1     32     72      0.1000E-01       62.50    
   2814      1     32     73      0.1000E-01       62.50    
   2815      1     32     74      0.1000E-01       62.50    
   2816      1     32     75      0.1000E-01       62.50    
   2817      1     32     76      0.1000E-01       62.50    
   2818      1     32     77      0.1000E-01       62.50    
   2819      1     32     78      0.1000E-01       62.50    
   2820      1     32     79      0.1000E-01       62.50    
   2821      1     32     80      0.1000E-01       62.50    
   2822      1     32     81      0.1000E-01       62.50    
   2823      1     32     82      0.1000E-01       62.50    
   2824      1     32     83      0.1000E-01       62.50    
   2825      1     32     84      0.1000E-01       62.50    
   2826      1     32     85      0.1000E-01       62.50    
   2827      1     32     86      0.1000E-01       62.50    
   2828      1     32     87      0.1000E-01       62.50    
   2829      1     32    114      0.1000E-01       62.50    
   2830      1     32    115      0.1000E-01       62.50    
   2831      1     32    116      0.1000E-01       62.50    
   2832      1     32    117      0.1000E-01       62.50    
   2833      1     32    118      0.1000E-01       62.50    
   2834      1     32    119      0.1000E-01       62.50    
   2835      1     32    120      0.1000E-01       62.50    
   2836      1     32    121      0.1000E-01       62.50    
   2837      1     32    122      0.1000E-01       62.50    
   2838      1     32    123      0.1000E-01       62.50    
   2839      1     32    124      0.1000E-01       62.50    
   2840      1     32    148      0.1000E-01       62.50    
   2841      1     32    149      0.1000E-01       62.50    
   2842      1     32    150      0.1000E-01       62.50    
   2843      1     32    151      0.1000E-01       62.50    
   2844      1     32    152      0.1000E-01       62.50    
   2845      1     32    153      0.1000E-01       62.50    
   2846      1     32    154      0.1000E-01       62.50    
   2847      1     32    155      0.1000E-01       62.50    
   2848      1     32    156      0.1000E-01       62.50    
   2849      1     32    157      0.1000E-01       62.50    
   2850      1     32    158      0.1000E-01       62.50    
   2851      1     32    159      0.1000E-01       62.50    
   2852      1     32    160      0.1000E-01       62.50    
   2853      1     32    161      0.1000E-01       62.50    
   2854      1     32    162      0.1000E-01       62.50    
   2855      1     32    172      0.1000E-01       62.50    
   2856      1     32    173      0.1000E-01       62.50    
   2857      1     32    174      0.1000E-01       62.50    
   2858      1     32    175      0.1000E-01       62.50    
   2859      1     32    176      0.1000E-01       62.50    
   2860      1     32    177      0.1000E-01       62.50    
   2861      1     32    178      0.1000E-01       62.50    
   2862      1     32    179      0.1000E-01       62.50    
   2863      1     32    180      0.1000E-01       62.50    
   2864      1     32    181      0.1000E-01       62.50    
   2865      1     32    182      0.1000E-01       62.50    
   2866      1     32    183      0.1000E-01       62.50    
   2867      1     32    184      0.1000E-01       62.50    
   2868      1     32    185      0.1000E-01       62.50    
   2869      1     32    186      0.1000E-01       62.50    
   2870      1     32    187      0.1000E-01       62.50    
   2871      1     32    188      0.1000E-01       62.50    
   2872      1     32    189      0.1000E-01       62.50    
   2873      1     32    190      0.1000E-01       62.50    
   2874      1     32    191      0.1000E-01       62.50    
   2875      1     32    192      0.1000E-01       62.50    
   2876      1     32    193      0.1000E-01       62.50    
   2877      1     32    194      0.1000E-01       62.50    
   2878      1     32    195      0.1000E-01       62.50    
   2879      1     32    196      0.1000E-01       62.50    
   2880      1     32    197      0.1000E-01       62.50    
   2881      1     32    198      0.1000E-01       62.50    
   2882      1     32    199      0.1000E-01       62.50    
   2883      1     33      2      0.1000E-01       62.50    
   2884      1     33      3      0.1000E-01       62.50    
   2885      1     33      4      0.1000E-01       62.50    
   2886      1     33      5      0.1000E-01       62.50    
   2887      1     33      6      0.1000E-01       62.50    
   2888      1     33      7      0.1000E-01       62.50    
   2889      1     33      8      0.1000E-01       62.50    
   2890      1     33      9      0.1000E-01       62.50    
   2891      1     33     10      0.1000E-01       62.50    
   2892      1     33     11      0.1000E-01       62.50    
   2893      1     33     12      0.1000E-01       62.50    
   2894      1     33     13      0.1000E-01       62.50    
   2895      1     33     14      0.1000E-01       62.50    
   2896      1     33     15      0.1000E-01       62.50    
   2897      1     33     16      0.1000E-01       62.50    
   2898      1     33     17      0.1000E-01       62.50    
   2899      1     33     18      0.1000E-01       62.50    
   2900      1     33     19      0.1000E-01       62.50    
   2901      1     33     20      0.1000E-01       62.50    
   2902      1     33     21      0.1000E-01       62.50    
   2903      1     33     22      0.1000E-01       62.50    
   2904      1     33     23      0.1000E-01       62.50    
   2905      1     33     24      0.1000E-01       62.50    
   2906      1     33     25      0.1000E-01       62.50    
   2907      1     33     26      0.1000E-01       62.50    
   2908      1     33     27      0.1000E-01       62.50    
   2909      1     33     28      0.1000E-01       62.50    
   2910      1     33     29      0.1000E-01       62.50    
   2911      1     33     30      0.1000E-01       62.50    
   2912      1     33     31      0.1000E-01       62.50    
   2913      1     33     32      0.1000E-01       62.50    
   2914      1     33     33      0.1000E-01       62.50    
   2915      1     33     34      0.1000E-01       62.50    
   2916      1     33     35      0.1000E-01       62.50    
   2917      1     33     36      0.1000E-01       62.50    
   2918      1     33     37      0.1000E-01       62.50    
   2919      1     33     38      0.1000E-01       62.50    
   2920      1     33     39      0.1000E-01       62.50    
   2921      1     33     40      0.1000E-01       62.50    
   2922      1     33     41      0.1000E-01       62.50    
   2923      1     33     42      0.1000E-01       62.50    
   2924      1     33     43      0.1000E-01       62.50    
   2925      1     33     44      0.1000E-01       62.50    
   2926      1     33     45      0.1000E-01       62.50    
   2927      1     33     46      0.1000E-01       62.50    
   2928      1     33     47      0.1000E-01       62.50    
   2929      1     33     48      0.1000E-01       62.50    
   2930      1     33     49      0.1000E-01       62.50    
   2931      1     33     50      0.1000E-01       62.50    
   2932      1     33     51      0.1000E-01       62.50    
   2933      1     33     52      0.1000E-01       62.50    
   2934      1     33     53      0.1000E-01       62.50    
   2935      1     33     54      0.1000E-01       62.50    
   2936      1     33     55      0.1000E-01       62.50    
   2937      1     33     56      0.1000E-01       62.50    
   2938      1     33     57      0.1000E-01       62.50    
   2939      1     33     58      0.1000E-01       62.50    
   2940      1     33     59      0.1000E-01       62.50    
   2941      1     33     60      0.1000E-01       62.50    
   2942      1     33     61      0.1000E-01       62.50    
   2943      1     33     62      0.1000E-01       62.50    
   2944      1     33     63      0.1000E-01       62.50    
   2945      1     33     64      0.1000E-01       62.50    
   2946      1     33     65      0.1000E-01       62.50    
   2947      1     33     66      0.1000E-01       62.50    
   2948      1     33     67      0.1000E-01       62.50    
   2949      1     33     68      0.1000E-01       62.50    
   2950      1     33     69      0.1000E-01       62.50    
   2951      1     33     70      0.1000E-01       62.50    
   2952      1     33     71      0.1000E-01       62.50    
   2953      1     33     72      0.1000E-01       62.50    
   2954      1     33     73      0.1000E-01       62.50    
   2955      1     33     74      0.1000E-01       62.50    
   2956      1     33     75      0.1000E-01       62.50    
   2957      1     33     76      0.1000E-01       62.50    
   2958      1     33     77      0.1000E-01       62.50    
   2959      1     33     78      0.1000E-01       62.50    
   2960      1     33     79      0.1000E-01       62.50    
   2961      1     33     80      0.1000E-01       62.50    
   2962      1     33     81      0.1000E-01       62.50    
   2963      1     33     82      0.1000E-01       62.50    
   2964      1     33     83      0.1000E-01       62.50    
   2965      1     33     84      0.1000E-01       62.50    
   2966      1     33     85      0.1000E-01       62.50    
   2967      1     33     86      0.1000E-01       62.50    
   2968      1     33     87      0.1000E-01       62.50    
   2969      1     33    114      0.1000E-01       62.50    
   2970      1     33    115      0.1000E-01       62.50    
   2971      1     33    116      0.1000E-01       62.50    
   2972      1     33    117      0.1000E-01       62.50    
   2973      1     33    118      0.1000E-01       62.50    
   2974      1     33    119      0.1000E-01       62.50    
   2975      1     33    120      0.1000E-01       62.50    
   2976      1     33    121      0.1000E-01       62.50    
   2977      1     33    122      0.1000E-01       62.50    
   2978      1     33    123      0.1000E-01       62.50    
   2979      1     33    124      0.1000E-01       62.50    
   2980      1     33    148      0.1000E-01       62.50    
   2981      1     33    149      0.1000E-01       62.50    
   2982      1     33    150      0.1000E-01       62.50    
   2983      1     33    151      0.1000E-01       62.50    
   2984      1     33    152      0.1000E-01       62.50    
   2985      1     33    153      0.1000E-01       62.50    
   2986      1     33    154      0.1000E-01       62.50    
   2987      1     33    155      0.1000E-01       62.50    
   2988      1     33    156      0.1000E-01       62.50    
   2989      1     33    157      0.1000E-01       62.50    
   2990      1     33    158      0.1000E-01       62.50    
   2991      1     33    159      0.1000E-01       62.50    
   2992      1     33    160      0.1000E-01       62.50    
   2993      1     33    161      0.1000E-01       62.50    
   2994      1     33    172      0.1000E-01       62.50    
   2995      1     33    173      0.1000E-01       62.50    
   2996      1     33    174      0.1000E-01       62.50    
   2997      1     33    175      0.1000E-01       62.50    
   2998      1     33    176      0.1000E-01       62.50    
   2999      1     33    177      0.1000E-01       62.50    
   3000      1     33    178      0.1000E-01       62.50    
   3001      1     33    179      0.1000E-01       62.50    
   3002      1     33    180      0.1000E-01       62.50    
   3003      1     33    181      0.1000E-01       62.50    
   3004      1     33    182      0.1000E-01       62.50    
   3005      1     33    183      0.1000E-01       62.50    
   3006      1     33    184      0.1000E-01       62.50    
   3007      1     33    185      0.1000E-01       62.50    
   3008      1     33    186      0.1000E-01       62.50    
   3009      1     33    187      0.1000E-01       62.50    
   3010      1     33    188      0.1000E-01       62.50    
   3011      1     33    189      0.1000E-01       62.50    
   3012      1     33    190      0.1000E-01       62.50    
   3013      1     33    191      0.1000E-01       62.50    
   3014      1     33    192      0.1000E-01       62.50    
   3015      1     33    193      0.1000E-01       62.50    
   3016      1     33    194      0.1000E-01       62.50    
   3017      1     33    195      0.1000E-01       62.50    
   3018      1     33    196      0.1000E-01       62.50    
   3019      1     33    197      0.1000E-01       62.50    
   3020      1     33    198      0.1000E-01       62.50    
   3021      1     33    199      0.1000E-01       62.50    
   3022      1     34      2      0.1000E-01       62.50    
   3023      1     34      3      0.1000E-01       62.50    
   3024      1     34      4      0.1000E-01       62.50    
   3025      1     34      5      0.1000E-01       62.50    
   3026      1     34      6      0.1000E-01       62.50    
   3027      1     34      7      0.1000E-01       62.50    
   3028      1     34      8      0.1000E-01       62.50    
   3029      1     34      9      0.1000E-01       62.50    
   3030      1     34     10      0.1000E-01       62.50    
   3031      1     34     11      0.1000E-01       62.50    
   3032      1     34     12      0.1000E-01       62.50    
   3033      1     34     13      0.1000E-01       62.50    
   3034      1     34     14      0.1000E-01       62.50    
   3035      1     34     15      0.1000E-01       62.50    
   3036      1     34     16      0.1000E-01       62.50    
   3037      1     34     17      0.1000E-01       62.50    
   3038      1     34     18      0.1000E-01       62.50    
   3039      1     34     19      0.1000E-01       62.50    
   3040      1     34     20      0.1000E-01       62.50    
   3041      1     34     21      0.1000E-01       62.50    
   3042      1     34     22      0.1000E-01       62.50    
   3043      1     34     23      0.1000E-01       62.50    
   3044      1     34     24      0.1000E-01       62.50    
   3045      1     34     25      0.1000E-01       62.50    
   3046      1     34     26      0.1000E-01       62.50    
   3047      1     34     27      0.1000E-01       62.50    
   3048      1     34     28      0.1000E-01       62.50    
   3049      1     34     29      0.1000E-01       62.50    
   3050      1     34     30      0.1000E-01       62.50    
   3051      1     34     31      0.1000E-01       62.50    
   3052      1     34     32      0.1000E-01       62.50    
   3053      1     34     33      0.1000E-01       62.50    
   3054      1     34     34      0.1000E-01       62.50    
   3055      1     34     35      0.1000E-01       62.50    
   3056      1     34     36      0.1000E-01       62.50    
   3057      1     34     37      0.1000E-01       62.50    
   3058      1     34     38      0.1000E-01       62.50    
   3059      1     34     39      0.1000E-01       62.50    
   3060      1     34     40      0.1000E-01       62.50    
   3061      1     34     41      0.1000E-01       62.50    
   3062      1     34     42      0.1000E-01       62.50    
   3063      1     34     43      0.1000E-01       62.50    
   3064      1     34     44      0.1000E-01       62.50    
   3065      1     34     45      0.1000E-01       62.50    
   3066      1     34     46      0.1000E-01       62.50    
   3067      1     34     47      0.1000E-01       62.50    
   3068      1     34     48      0.1000E-01       62.50    
   3069      1     34     49      0.1000E-01       62.50    
   3070      1     34     50      0.1000E-01       62.50    
   3071      1     34     51      0.1000E-01       62.50    
   3072      1     34     52      0.1000E-01       62.50    
   3073      1     34     53      0.1000E-01       62.50    
   3074      1     34     54      0.1000E-01       62.50    
   3075      1     34     55      0.1000E-01       62.50    
   3076      1     34     56      0.1000E-01       62.50    
   3077      1     34     57      0.1000E-01       62.50    
   3078      1     34     58      0.1000E-01       62.50    
   3079      1     34     59      0.1000E-01       62.50    
   3080      1     34     60      0.1000E-01       62.50    
   3081      1     34     61      0.1000E-01       62.50    
   3082      1     34     62      0.1000E-01       62.50    
   3083      1     34     63      0.1000E-01       62.50    
   3084      1     34     64      0.1000E-01       62.50    
   3085      1     34     65      0.1000E-01       62.50    
   3086      1     34     66      0.1000E-01       62.50    
   3087      1     34     67      0.1000E-01       62.50    
   3088      1     34     68      0.1000E-01       62.50    
   3089      1     34     69      0.1000E-01       62.50    
   3090      1     34     70      0.1000E-01       62.50    
   3091      1     34     71      0.1000E-01       62.50    
   3092      1     34     72      0.1000E-01       62.50    
   3093      1     34     73      0.1000E-01       62.50    
   3094      1     34     74      0.1000E-01       62.50    
   3095      1     34     75      0.1000E-01       62.50    
   3096      1     34     76      0.1000E-01       62.50    
   3097      1     34     77      0.1000E-01       62.50    
   3098      1     34     78      0.1000E-01       62.50    
   3099      1     34     79      0.1000E-01       62.50    
   3100      1     34     80      0.1000E-01       62.50    
   3101      1     34     81      0.1000E-01       62.50    
   3102      1     34     82      0.1000E-01       62.50    
   3103      1     34     83      0.1000E-01       62.50    
   3104      1     34     84      0.1000E-01       62.50    
   3105      1     34     85      0.1000E-01       62.50    
   3106      1     34     86      0.1000E-01       62.50    
   3107      1     34    114      0.1000E-01       62.50    
   3108      1     34    115      0.1000E-01       62.50    
   3109      1     34    116      0.1000E-01       62.50    
   3110      1     34    117      0.1000E-01       62.50    
   3111      1     34    118      0.1000E-01       62.50    
   3112      1     34    119      0.1000E-01       62.50    
   3113      1     34    120      0.1000E-01       62.50    
   3114      1     34    121      0.1000E-01       62.50    
   3115      1     34    122      0.1000E-01       62.50    
   3116      1     34    123      0.1000E-01       62.50    
   3117      1     34    141      0.1000E-01       62.50    
   3118      1     34    142      0.1000E-01       62.50    
   3119      1     34    143      0.1000E-01       62.50    
   3120      1     34    145      0.1000E-01       62.50    
   3121      1     34    146      0.1000E-01       62.50    
   3122      1     34    147      0.1000E-01       62.50    
   3123      1     34    148      0.1000E-01       62.50    
   3124      1     34    149      0.1000E-01       62.50    
   3125      1     34    150      0.1000E-01       62.50    
   3126      1     34    151      0.1000E-01       62.50    
   3127      1     34    152      0.1000E-01       62.50    
   3128      1     34    153      0.1000E-01       62.50    
   3129      1     34    154      0.1000E-01       62.50    
   3130      1     34    155      0.1000E-01       62.50    
   3131      1     34    156      0.1000E-01       62.50    
   3132      1     34    157      0.1000E-01       62.50    
   3133      1     34    158      0.1000E-01       62.50    
   3134      1     34    159      0.1000E-01       62.50    
   3135      1     34    160      0.1000E-01       62.50    
   3136      1     34    161      0.1000E-01       62.50    
   3137      1     34    169      0.1000E-01       62.50    
   3138      1     34    170      0.1000E-01       62.50    
   3139      1     34    171      0.1000E-01       62.50    
   3140      1     34    172      0.1000E-01       62.50    
   3141      1     34    173      0.1000E-01       62.50    
   3142      1     34    174      0.1000E-01       62.50    
   3143      1     34    175      0.1000E-01       62.50    
   3144      1     34    176      0.1000E-01       62.50    
   3145      1     34    177      0.1000E-01       62.50    
   3146      1     34    178      0.1000E-01       62.50    
   3147      1     34    179      0.1000E-01       62.50    
   3148      1     34    180      0.1000E-01       62.50    
   3149      1     34    181      0.1000E-01       62.50    
   3150      1     34    182      0.1000E-01       62.50    
   3151      1     34    183      0.1000E-01       62.50    
   3152      1     34    184      0.1000E-01       62.50    
   3153      1     34    185      0.1000E-01       62.50    
   3154      1     34    186      0.1000E-01       62.50    
   3155      1     34    187      0.1000E-01       62.50    
   3156      1     34    188      0.1000E-01       62.50    
   3157      1     34    189      0.1000E-01       62.50    
   3158      1     34    190      0.1000E-01       62.50    
   3159      1     34    191      0.1000E-01       62.50    
   3160      1     34    192      0.1000E-01       62.50    
   3161      1     34    193      0.1000E-01       62.50    
   3162      1     34    194      0.1000E-01       62.50    
   3163      1     34    195      0.1000E-01       62.50    
   3164      1     34    196      0.1000E-01       62.50    
   3165      1     34    197      0.1000E-01       62.50    
   3166      1     34    198      0.1000E-01       62.50    
   3167      1     34    199      0.1000E-01       62.50    
   3168      1     35      2      0.1000E-01       62.50    
   3169      1     35      3      0.1000E-01       62.50    
   3170      1     35      4      0.1000E-01       62.50    
   3171      1     35      5      0.1000E-01       62.50    
   3172      1     35      6      0.1000E-01       62.50    
   3173      1     35      7      0.1000E-01       62.50    
   3174      1     35      8      0.1000E-01       62.50    
   3175      1     35      9      0.1000E-01       62.50    
   3176      1     35     10      0.1000E-01       62.50    
   3177      1     35     11      0.1000E-01       62.50    
   3178      1     35     12      0.1000E-01       62.50    
   3179      1     35     13      0.1000E-01       62.50    
   3180      1     35     14      0.1000E-01       62.50    
   3181      1     35     15      0.1000E-01       62.50    
   3182      1     35     16      0.1000E-01       62.50    
   3183      1     35     17      0.1000E-01       62.50    
   3184      1     35     18      0.1000E-01       62.50    
   3185      1     35     19      0.1000E-01       62.50    
   3186      1     35     20      0.1000E-01       62.50    
   3187      1     35     21      0.1000E-01       62.50    
   3188      1     35     22      0.1000E-01       62.50    
   3189      1     35     23      0.1000E-01       62.50    
   3190      1     35     24      0.1000E-01       62.50    
   3191      1     35     25      0.1000E-01       62.50    
   3192      1     35     26      0.1000E-01       62.50    
   3193      1     35     27      0.1000E-01       62.50    
   3194      1     35     28      0.1000E-01       62.50    
   3195      1     35     29      0.1000E-01       62.50    
   3196      1     35     30      0.1000E-01       62.50    
   3197      1     35     31      0.1000E-01       62.50    
   3198      1     35     32      0.1000E-01       62.50    
   3199      1     35     33      0.1000E-01       62.50    
   3200      1     35     34      0.1000E-01       62.50    
   3201      1     35     35      0.1000E-01       62.50    
   3202      1     35     36      0.1000E-01       62.50    
   3203      1     35     37      0.1000E-01       62.50    
   3204      1     35     38      0.1000E-01       62.50    
   3205      1     35     39      0.1000E-01       62.50    
   3206      1     35     40      0.1000E-01       62.50    
   3207      1     35     41      0.1000E-01       62.50    
   3208      1     35     42      0.1000E-01       62.50    
   3209      1     35     43      0.1000E-01       62.50    
   3210      1     35     44      0.1000E-01       62.50    
   3211      1     35     45      0.1000E-01       62.50    
   3212      1     35     46      0.1000E-01       62.50    
   3213      1     35     47      0.1000E-01       62.50    
   3214      1     35     48      0.1000E-01       62.50    
   3215      1     35     49      0.1000E-01       62.50    
   3216      1     35     50      0.1000E-01       62.50    
   3217      1     35     51      0.1000E-01       62.50    
   3218      1     35     52      0.1000E-01       62.50    
   3219      1     35     53      0.1000E-01       62.50    
   3220      1     35     54      0.1000E-01       62.50    
   3221      1     35     55      0.1000E-01       62.50    
   3222      1     35     56      0.1000E-01       62.50    
   3223      1     35     57      0.1000E-01       62.50    
   3224      1     35     58      0.1000E-01       62.50    
   3225      1     35     59      0.1000E-01       62.50    
   3226      1     35     60      0.1000E-01       62.50    
   3227      1     35     61      0.1000E-01       62.50    
   3228      1     35     62      0.1000E-01       62.50    
   3229      1     35     63      0.1000E-01       62.50    
   3230      1     35     64      0.1000E-01       62.50    
   3231      1     35     65      0.1000E-01       62.50    
   3232      1     35     66      0.1000E-01       62.50    
   3233      1     35     67      0.1000E-01       62.50    
   3234      1     35     68      0.1000E-01       62.50    
   3235      1     35     69      0.1000E-01       62.50    
   3236      1     35     70      0.1000E-01       62.50    
   3237      1     35     71      0.1000E-01       62.50    
   3238      1     35     72      0.1000E-01       62.50    
   3239      1     35     73      0.1000E-01       62.50    
   3240      1     35     74      0.1000E-01       62.50    
   3241      1     35     75      0.1000E-01       62.50    
   3242      1     35     76      0.1000E-01       62.50    
   3243      1     35     77      0.1000E-01       62.50    
   3244      1     35     78      0.1000E-01       62.50    
   3245      1     35     79      0.1000E-01       62.50    
   3246      1     35     80      0.1000E-01       62.50    
   3247      1     35     81      0.1000E-01       62.50    
   3248      1     35     83      0.1000E-01       62.50    
   3249      1     35     84      0.1000E-01       62.50    
   3250      1     35     85      0.1000E-01       62.50    
   3251      1     35     86      0.1000E-01       62.50    
   3252      1     35     87      0.1000E-01       62.50    
   3253      1     35    114      0.1000E-01       62.50    
   3254      1     35    115      0.1000E-01       62.50    
   3255      1     35    116      0.1000E-01       62.50    
   3256      1     35    117      0.1000E-01       62.50    
   3257      1     35    118      0.1000E-01       62.50    
   3258      1     35    119      0.1000E-01       62.50    
   3259      1     35    120      0.1000E-01       62.50    
   3260      1     35    121      0.1000E-01       62.50    
   3261      1     35    122      0.1000E-01       62.50    
   3262      1     35    123      0.1000E-01       62.50    
   3263      1     35    124      0.1000E-01       62.50    
   3264      1     35    141      0.1000E-01       62.50    
   3265      1     35    142      0.1000E-01       62.50    
   3266      1     35    143      0.1000E-01       62.50    
   3267      1     35    144      0.1000E-01       62.50    
   3268      1     35    145      0.1000E-01       62.50    
   3269      1     35    146      0.1000E-01       62.50    
   3270      1     35    147      0.1000E-01       62.50    
   3271      1     35    148      0.1000E-01       62.50    
   3272      1     35    149      0.1000E-01       62.50    
   3273      1     35    150      0.1000E-01       62.50    
   3274      1     35    151      0.1000E-01       62.50    
   3275      1     35    152      0.1000E-01       62.50    
   3276      1     35    153      0.1000E-01       62.50    
   3277      1     35    154      0.1000E-01       62.50    
   3278      1     35    155      0.1000E-01       62.50    
   3279      1     35    156      0.1000E-01       62.50    
   3280      1     35    157      0.1000E-01       62.50    
   3281      1     35    158      0.1000E-01       62.50    
   3282      1     35    159      0.1000E-01       62.50    
   3283      1     35    160      0.1000E-01       62.50    
   3284      1     35    161      0.1000E-01       62.50    
   3285      1     35    162      0.1000E-01       62.50    
   3286      1     35    163      0.1000E-01       62.50    
   3287      1     35    166      0.1000E-01       62.50    
   3288      1     35    167      0.1000E-01       62.50    
   3289      1     35    168      0.1000E-01       62.50    
   3290      1     35    169      0.1000E-01       62.50    
   3291      1     35    170      0.1000E-01       62.50    
   3292      1     35    171      0.1000E-01       62.50    
   3293      1     35    172      0.1000E-01       62.50    
   3294      1     35    173      0.1000E-01       62.50    
   3295      1     35    174      0.1000E-01       62.50    
   3296      1     35    175      0.1000E-01       62.50    
   3297      1     35    176      0.1000E-01       62.50    
   3298      1     35    177      0.1000E-01       62.50    
   3299      1     35    178      0.1000E-01       62.50    
   3300      1     35    179      0.1000E-01       62.50    
   3301      1     35    180      0.1000E-01       62.50    
   3302      1     35    181      0.1000E-01       62.50    
   3303      1     35    182      0.1000E-01       62.50    
   3304      1     35    183      0.1000E-01       62.50    
   3305      1     35    184      0.1000E-01       62.50    
   3306      1     35    185      0.1000E-01       62.50    
   3307      1     35    186      0.1000E-01       62.50    
   3308      1     35    187      0.1000E-01       62.50    
   3309      1     35    188      0.1000E-01       62.50    
   3310      1     35    189      0.1000E-01       62.50    
   3311      1     35    190      0.1000E-01       62.50    
   3312      1     35    191      0.1000E-01       62.50    
   3313      1     35    192      0.1000E-01       62.50    
   3314      1     35    193      0.1000E-01       62.50    
   3315      1     35    194      0.1000E-01       62.50    
   3316      1     35    195      0.1000E-01       62.50    
   3317      1     35    196      0.1000E-01       62.50    
   3318      1     35    197      0.1000E-01       62.50    
   3319      1     35    198      0.1000E-01       62.50    
   3320      1     35    199      0.1000E-01       62.50    
   3321      1     36      2      0.1000E-01       62.50    
   3322      1     36      3      0.1000E-01       62.50    
   3323      1     36      4      0.1000E-01       62.50    
   3324      1     36      5      0.1000E-01       62.50    
   3325      1     36      6      0.1000E-01       62.50    
   3326      1     36      7      0.1000E-01       62.50    
   3327      1     36      8      0.1000E-01       62.50    
   3328      1     36      9      0.1000E-01       62.50    
   3329      1     36     10      0.1000E-01       62.50    
   3330      1     36     11      0.1000E-01       62.50    
   3331      1     36     12      0.1000E-01       62.50    
   3332      1     36     13      0.1000E-01       62.50    
   3333      1     36     14      0.1000E-01       62.50    
   3334      1     36     15      0.1000E-01       62.50    
   3335      1     36     16      0.1000E-01       62.50    
   3336      1     36     17      0.1000E-01       62.50    
   3337      1     36     18      0.1000E-01       62.50    
   3338      1     36     19      0.1000E-01       62.50    
   3339      1     36     20      0.1000E-01       62.50    
   3340      1     36     21      0.1000E-01       62.50    
   3341      1     36     22      0.1000E-01       62.50    
   3342      1     36     23      0.1000E-01       62.50    
   3343      1     36     24      0.1000E-01       62.50    
   3344      1     36     25      0.1000E-01       62.50    
   3345      1     36     26      0.1000E-01       62.50    
   3346      1     36     27      0.1000E-01       62.50    
   3347      1     36     28      0.1000E-01       62.50    
   3348      1     36     29      0.1000E-01       62.50    
   3349      1     36     30      0.1000E-01       62.50    
   3350      1     36     31      0.1000E-01       62.50    
   3351      1     36     32      0.1000E-01       62.50    
   3352      1     36     33      0.1000E-01       62.50    
   3353      1     36     34      0.1000E-01       62.50    
   3354      1     36     35      0.1000E-01       62.50    
   3355      1     36     36      0.1000E-01       62.50    
   3356      1     36     37      0.1000E-01       62.50    
   3357      1     36     38      0.1000E-01       62.50    
   3358      1     36     39      0.1000E-01       62.50    
   3359      1     36     40      0.1000E-01       62.50    
   3360      1     36     41      0.1000E-01       62.50    
   3361      1     36     42      0.1000E-01       62.50    
   3362      1     36     43      0.1000E-01       62.50    
   3363      1     36     44      0.1000E-01       62.50    
   3364      1     36     45      0.1000E-01       62.50    
   3365      1     36     46      0.1000E-01       62.50    
   3366      1     36     47      0.1000E-01       62.50    
   3367      1     36     48      0.1000E-01       62.50    
   3368      1     36     49      0.1000E-01       62.50    
   3369      1     36     50      0.1000E-01       62.50    
   3370      1     36     51      0.1000E-01       62.50    
   3371      1     36     52      0.1000E-01       62.50    
   3372      1     36     53      0.1000E-01       62.50    
   3373      1     36     54      0.1000E-01       62.50    
   3374      1     36     55      0.1000E-01       62.50    
   3375      1     36     56      0.1000E-01       62.50    
   3376      1     36     57      0.1000E-01       62.50    
   3377      1     36     58      0.1000E-01       62.50    
   3378      1     36     59      0.1000E-01       62.50    
   3379      1     36     60      0.1000E-01       62.50    
   3380      1     36     61      0.1000E-01       62.50    
   3381      1     36     62      0.1000E-01       62.50    
   3382      1     36     63      0.1000E-01       62.50    
   3383      1     36     64      0.1000E-01       62.50    
   3384      1     36     65      0.1000E-01       62.50    
   3385      1     36     66      0.1000E-01       62.50    
   3386      1     36     67      0.1000E-01       62.50    
   3387      1     36     68      0.1000E-01       62.50    
   3388      1     36     69      0.1000E-01       62.50    
   3389      1     36     70      0.1000E-01       62.50    
   3390      1     36     71      0.1000E-01       62.50    
   3391      1     36     72      0.1000E-01       62.50    
   3392      1     36     73      0.1000E-01       62.50    
   3393      1     36     74      0.1000E-01       62.50    
   3394      1     36     75      0.1000E-01       62.50    
   3395      1     36     76      0.1000E-01       62.50    
   3396      1     36     77      0.1000E-01       62.50    
   3397      1     36     78      0.1000E-01       62.50    
   3398      1     36     79      0.1000E-01       62.50    
   3399      1     36     80      0.1000E-01       62.50    
   3400      1     36     85      0.1000E-01       62.50    
   3401      1     36     86      0.1000E-01       62.50    
   3402      1     36     87      0.1000E-01       62.50    
   3403      1     36     88      0.1000E-01       62.50    
   3404      1     36    117      0.1000E-01       62.50    
   3405      1     36    118      0.1000E-01       62.50    
   3406      1     36    119      0.1000E-01       62.50    
   3407      1     36    120      0.1000E-01       62.50    
   3408      1     36    121      0.1000E-01       62.50    
   3409      1     36    122      0.1000E-01       62.50    
   3410      1     36    123      0.1000E-01       62.50    
   3411      1     36    124      0.1000E-01       62.50    
   3412      1     36    141      0.1000E-01       62.50    
   3413      1     36    142      0.1000E-01       62.50    
   3414      1     36    143      0.1000E-01       62.50    
   3415      1     36    144      0.1000E-01       62.50    
   3416      1     36    145      0.1000E-01       62.50    
   3417      1     36    146      0.1000E-01       62.50    
   3418      1     36    147      0.1000E-01       62.50    
   3419      1     36    148      0.1000E-01       62.50    
   3420      1     36    149      0.1000E-01       62.50    
   3421      1     36    150      0.1000E-01       62.50    
   3422      1     36    151      0.1000E-01       62.50    
   3423      1     36    152      0.1000E-01       62.50    
   3424      1     36    153      0.1000E-01       62.50    
   3425      1     36    154      0.1000E-01       62.50    
   3426      1     36    155      0.1000E-01       62.50    
   3427      1     36    156      0.1000E-01       62.50    
   3428      1     36    157      0.1000E-01       62.50    
   3429      1     36    158      0.1000E-01       62.50    
   3430      1     36    159      0.1000E-01       62.50    
   3431      1     36    160      0.1000E-01       62.50    
   3432      1     36    161      0.1000E-01       62.50    
   3433      1     36    162      0.1000E-01       62.50    
   3434      1     36    163      0.1000E-01       62.50    
   3435      1     36    164      0.1000E-01       62.50    
   3436      1     36    165      0.1000E-01       62.50    
   3437      1     36    166      0.1000E-01       62.50    
   3438      1     36    167      0.1000E-01       62.50    
   3439      1     36    168      0.1000E-01       62.50    
   3440      1     36    169      0.1000E-01       62.50    
   3441      1     36    170      0.1000E-01       62.50    
   3442      1     36    171      0.1000E-01       62.50    
   3443      1     36    172      0.1000E-01       62.50    
   3444      1     36    173      0.1000E-01       62.50    
   3445      1     36    174      0.1000E-01       62.50    
   3446      1     36    175      0.1000E-01       62.50    
   3447      1     36    176      0.1000E-01       62.50    
   3448      1     36    177      0.1000E-01       62.50    
   3449      1     36    178      0.1000E-01       62.50    
   3450      1     36    179      0.1000E-01       62.50    
   3451      1     36    180      0.1000E-01       62.50    
   3452      1     36    181      0.1000E-01       62.50    
   3453      1     36    182      0.1000E-01       62.50    
   3454      1     36    183      0.1000E-01       62.50    
   3455      1     36    184      0.1000E-01       62.50    
   3456      1     36    185      0.1000E-01       62.50    
   3457      1     36    186      0.1000E-01       62.50    
   3458      1     36    187      0.1000E-01       62.50    
   3459      1     36    188      0.1000E-01       62.50    
   3460      1     36    189      0.1000E-01       62.50    
   3461      1     36    190      0.1000E-01       62.50    
   3462      1     36    191      0.1000E-01       62.50    
   3463      1     36    192      0.1000E-01       62.50    
   3464      1     36    193      0.1000E-01       62.50    
   3465      1     36    194      0.1000E-01       62.50    
   3466      1     36    195      0.1000E-01       62.50    
   3467      1     36    196      0.1000E-01       62.50    
   3468      1     36    197      0.1000E-01       62.50    
   3469      1     36    198      0.1000E-01       62.50    
   3470      1     36    199      0.1000E-01       62.50    
   3471      1     37      2      0.1000E-01       62.50    
   3472      1     37      3      0.1000E-01       62.50    
   3473      1     37      4      0.1000E-01       62.50    
   3474      1     37      5      0.1000E-01       62.50    
   3475      1     37      6      0.1000E-01       62.50    
   3476      1     37      7      0.1000E-01       62.50    
   3477      1     37      8      0.1000E-01       62.50    
   3478      1     37      9      0.1000E-01       62.50    
   3479      1     37     10      0.1000E-01       62.50    
   3480      1     37     11      0.1000E-01       62.50    
   3481      1     37     12      0.1000E-01       62.50    
   3482      1     37     13      0.1000E-01       62.50    
   3483      1     37     14      0.1000E-01       62.50    
   3484      1     37     15      0.1000E-01       62.50    
   3485      1     37     16      0.1000E-01       62.50    
   3486      1     37     17      0.1000E-01       62.50    
   3487      1     37     18      0.1000E-01       62.50    
   3488      1     37     19      0.1000E-01       62.50    
   3489      1     37     20      0.1000E-01       62.50    
   3490      1     37     21      0.1000E-01       62.50    
   3491      1     37     22      0.1000E-01       62.50    
   3492      1     37     23      0.1000E-01       62.50    
   3493      1     37     24      0.1000E-01       62.50    
   3494      1     37     25      0.1000E-01       62.50    
   3495      1     37     26      0.1000E-01       62.50    
   3496      1     37     27      0.1000E-01       62.50    
   3497      1     37     28      0.1000E-01       62.50    
   3498      1     37     29      0.1000E-01       62.50    
   3499      1     37     30      0.1000E-01       62.50    
   3500      1     37     31      0.1000E-01       62.50    
   3501      1     37     32      0.1000E-01       62.50    
   3502      1     37     33      0.1000E-01       62.50    
   3503      1     37     34      0.1000E-01       62.50    
   3504      1     37     35      0.1000E-01       62.50    
   3505      1     37     36      0.1000E-01       62.50    
   3506      1     37     37      0.1000E-01       62.50    
   3507      1     37     38      0.1000E-01       62.50    
   3508      1     37     39      0.1000E-01       62.50    
   3509      1     37     40      0.1000E-01       62.50    
   3510      1     37     41      0.1000E-01       62.50    
   3511      1     37     42      0.1000E-01       62.50    
   3512      1     37     43      0.1000E-01       62.50    
   3513      1     37     44      0.1000E-01       62.50    
   3514      1     37     45      0.1000E-01       62.50    
   3515      1     37     46      0.1000E-01       62.50    
   3516      1     37     47      0.1000E-01       62.50    
   3517      1     37     48      0.1000E-01       62.50    
   3518      1     37     49      0.1000E-01       62.50    
   3519      1     37     50      0.1000E-01       62.50    
   3520      1     37     51      0.1000E-01       62.50    
   3521      1     37     52      0.1000E-01       62.50    
   3522      1     37     53      0.1000E-01       62.50    
   3523      1     37     54      0.1000E-01       62.50    
   3524      1     37     55      0.1000E-01       62.50    
   3525      1     37     56      0.1000E-01       62.50    
   3526      1     37     57      0.1000E-01       62.50    
   3527      1     37     58      0.1000E-01       62.50    
   3528      1     37     59      0.1000E-01       62.50    
   3529      1     37     60      0.1000E-01       62.50    
   3530      1     37     61      0.1000E-01       62.50    
   3531      1     37     62      0.1000E-01       62.50    
   3532      1     37     63      0.1000E-01       62.50    
   3533      1     37     64      0.1000E-01       62.50    
   3534      1     37     65      0.1000E-01       62.50    
   3535      1     37     66      0.1000E-01       62.50    
   3536      1     37     67      0.1000E-01       62.50    
   3537      1     37     68      0.1000E-01       62.50    
   3538      1     37     69      0.1000E-01       62.50    
   3539      1     37     70      0.1000E-01       62.50    
   3540      1     37     71      0.1000E-01       62.50    
   3541      1     37     72      0.1000E-01       62.50    
   3542      1     37     73      0.1000E-01       62.50    
   3543      1     37     74      0.1000E-01       62.50    
   3544      1     37     75      0.1000E-01       62.50    
   3545      1     37     76      0.1000E-01       62.50    
   3546      1     37     77      0.1000E-01       62.50    
   3547      1     37     78      0.1000E-01       62.50    
   3548      1     37     86      0.1000E-01       62.50    
   3549      1     37     87      0.1000E-01       62.50    
   3550      1     37     88      0.1000E-01       62.50    
   3551      1     37    118      0.1000E-01       62.50    
   3552      1     37    119      0.1000E-01       62.50    
   3553      1     37    120      0.1000E-01       62.50    
   3554      1     37    121      0.1000E-01       62.50    
   3555      1     37    122      0.1000E-01       62.50    
   3556      1     37    123      0.1000E-01       62.50    
   3557      1     37    124      0.1000E-01       62.50    
   3558      1     37    141      0.1000E-01       62.50    
   3559      1     37    142      0.1000E-01       62.50    
   3560      1     37    143      0.1000E-01       62.50    
   3561      1     37    144      0.1000E-01       62.50    
   3562      1     37    145      0.1000E-01       62.50    
   3563      1     37    146      0.1000E-01       62.50    
   3564      1     37    147      0.1000E-01       62.50    
   3565      1     37    148      0.1000E-01       62.50    
   3566      1     37    149      0.1000E-01       62.50    
   3567      1     37    150      0.1000E-01       62.50    
   3568      1     37    151      0.1000E-01       62.50    
   3569      1     37    152      0.1000E-01       62.50    
   3570      1     37    153      0.1000E-01       62.50    
   3571      1     37    154      0.1000E-01       62.50    
   3572      1     37    155      0.1000E-01       62.50    
   3573      1     37    156      0.1000E-01       62.50    
   3574      1     37    157      0.1000E-01       62.50    
   3575      1     37    158      0.1000E-01       62.50    
   3576      1     37    159      0.1000E-01       62.50    
   3577      1     37    160      0.1000E-01       62.50    
   3578      1     37    161      0.1000E-01       62.50    
   3579      1     37    162      0.1000E-01       62.50    
   3580      1     37    163      0.1000E-01       62.50    
   3581      1     37    164      0.1000E-01       62.50    
   3582      1     37    165      0.1000E-01       62.50    
   3583      1     37    166      0.1000E-01       62.50    
   3584      1     37    167      0.1000E-01       62.50    
   3585      1     37    168      0.1000E-01       62.50    
   3586      1     37    169      0.1000E-01       62.50    
   3587      1     37    170      0.1000E-01       62.50    
   3588      1     37    171      0.1000E-01       62.50    
   3589      1     37    172      0.1000E-01       62.50    
   3590      1     37    173      0.1000E-01       62.50    
   3591      1     37    174      0.1000E-01       62.50    
   3592      1     37    175      0.1000E-01       62.50    
   3593      1     37    176      0.1000E-01       62.50    
   3594      1     37    177      0.1000E-01       62.50    
   3595      1     37    178      0.1000E-01       62.50    
   3596      1     37    179      0.1000E-01       62.50    
   3597      1     37    180      0.1000E-01       62.50    
   3598      1     37    181      0.1000E-01       62.50    
   3599      1     37    182      0.1000E-01       62.50    
   3600      1     37    183      0.1000E-01       62.50    
   3601      1     37    184      0.1000E-01       62.50    
   3602      1     37    185      0.1000E-01       62.50    
   3603      1     37    186      0.1000E-01       62.50    
   3604      1     37    187      0.1000E-01       62.50    
   3605      1     37    188      0.1000E-01       62.50    
   3606      1     37    189      0.1000E-01       62.50    
   3607      1     37    190      0.1000E-01       62.50    
   3608      1     37    191      0.1000E-01       62.50    
   3609      1     37    192      0.1000E-01       62.50    
   3610      1     37    193      0.1000E-01       62.50    
   3611      1     37    194      0.1000E-01       62.50    
   3612      1     37    195      0.1000E-01       62.50    
   3613      1     37    196      0.1000E-01       62.50    
   3614      1     37    197      0.1000E-01       62.50    
   3615      1     37    198      0.1000E-01       62.50    
   3616      1     37    199      0.1000E-01       62.50    
   3617      1     38      2      0.1000E-01       62.50    
   3618      1     38      3      0.1000E-01       62.50    
   3619      1     38      4      0.1000E-01       62.50    
   3620      1     38      5      0.1000E-01       62.50    
   3621      1     38      6      0.1000E-01       62.50    
   3622      1     38      7      0.1000E-01       62.50    
   3623      1     38      8      0.1000E-01       62.50    
   3624      1     38      9      0.1000E-01       62.50    
   3625      1     38     10      0.1000E-01       62.50    
   3626      1     38     11      0.1000E-01       62.50    
   3627      1     38     12      0.1000E-01       62.50    
   3628      1     38     13      0.1000E-01       62.50    
   3629      1     38     14      0.1000E-01       62.50    
   3630      1     38     15      0.1000E-01       62.50    
   3631      1     38     16      0.1000E-01       62.50    
   3632      1     38     17      0.1000E-01       62.50    
   3633      1     38     18      0.1000E-01       62.50    
   3634      1     38     19      0.1000E-01       62.50    
   3635      1     38     20      0.1000E-01       62.50    
   3636      1     38     21      0.1000E-01       62.50    
   3637      1     38     22      0.1000E-01       62.50    
   3638      1     38     23      0.1000E-01       62.50    
   3639      1     38     24      0.1000E-01       62.50    
   3640      1     38     25      0.1000E-01       62.50    
   3641      1     38     26      0.1000E-01       62.50    
   3642      1     38     27      0.1000E-01       62.50    
   3643      1     38     28      0.1000E-01       62.50    
   3644      1     38     29      0.1000E-01       62.50    
   3645      1     38     30      0.1000E-01       62.50    
   3646      1     38     31      0.1000E-01       62.50    
   3647      1     38     32      0.1000E-01       62.50    
   3648      1     38     33      0.1000E-01       62.50    
   3649      1     38     34      0.1000E-01       62.50    
   3650      1     38     35      0.1000E-01       62.50    
   3651      1     38     36      0.1000E-01       62.50    
   3652      1     38     37      0.1000E-01       62.50    
   3653      1     38     38      0.1000E-01       62.50    
   3654      1     38     39      0.1000E-01       62.50    
   3655      1     38     40      0.1000E-01       62.50    
   3656      1     38     41      0.1000E-01       62.50    
   3657      1     38     42      0.1000E-01       62.50    
   3658      1     38     43      0.1000E-01       62.50    
   3659      1     38     44      0.1000E-01       62.50    
   3660      1     38     45      0.1000E-01       62.50    
   3661      1     38     46      0.1000E-01       62.50    
   3662      1     38     47      0.1000E-01       62.50    
   3663      1     38     48      0.1000E-01       62.50    
   3664      1     38     49      0.1000E-01       62.50    
   3665      1     38     50      0.1000E-01       62.50    
   3666      1     38     51      0.1000E-01       62.50    
   3667      1     38     52      0.1000E-01       62.50    
   3668      1     38     53      0.1000E-01       62.50    
   3669      1     38     54      0.1000E-01       62.50    
   3670      1     38     55      0.1000E-01       62.50    
   3671      1     38     56      0.1000E-01       62.50    
   3672      1     38     57      0.1000E-01       62.50    
   3673      1     38     58      0.1000E-01       62.50    
   3674      1     38     59      0.1000E-01       62.50    
   3675      1     38     60      0.1000E-01       62.50    
   3676      1     38     61      0.1000E-01       62.50    
   3677      1     38     62      0.1000E-01       62.50    
   3678      1     38     63      0.1000E-01       62.50    
   3679      1     38     64      0.1000E-01       62.50    
   3680      1     38     65      0.1000E-01       62.50    
   3681      1     38     66      0.1000E-01       62.50    
   3682      1     38     67      0.1000E-01       62.50    
   3683      1     38     68      0.1000E-01       62.50    
   3684      1     38     69      0.1000E-01       62.50    
   3685      1     38     70      0.1000E-01       62.50    
   3686      1     38     71      0.1000E-01       62.50    
   3687      1     38     72      0.1000E-01       62.50    
   3688      1     38     73      0.1000E-01       62.50    
   3689      1     38     74      0.1000E-01       62.50    
   3690      1     38     75      0.1000E-01       62.50    
   3691      1     38     76      0.1000E-01       62.50    
   3692      1     38     77      0.1000E-01       62.50    
   3693      1     38     86      0.1000E-01       62.50    
   3694      1     38     87      0.1000E-01       62.50    
   3695      1     38    117      0.1000E-01       62.50    
   3696      1     38    118      0.1000E-01       62.50    
   3697      1     38    119      0.1000E-01       62.50    
   3698      1     38    120      0.1000E-01       62.50    
   3699      1     38    121      0.1000E-01       62.50    
   3700      1     38    122      0.1000E-01       62.50    
   3701      1     38    123      0.1000E-01       62.50    
   3702      1     38    124      0.1000E-01       62.50    
   3703      1     38    125      0.1000E-01       62.50    
   3704      1     38    137      0.1000E-01       62.50    
   3705      1     38    138      0.1000E-01       62.50    
   3706      1     38    139      0.1000E-01       62.50    
   3707      1     38    140      0.1000E-01       62.50    
   3708      1     38    141      0.1000E-01       62.50    
   3709      1     38    142      0.1000E-01       62.50    
   3710      1     38    143      0.1000E-01       62.50    
   3711      1     38    144      0.1000E-01       62.50    
   3712      1     38    145      0.1000E-01       62.50    
   3713      1     38    146      0.1000E-01       62.50    
   3714      1     38    147      0.1000E-01       62.50    
   3715      1     38    148      0.1000E-01       62.50    
   3716      1     38    149      0.1000E-01       62.50    
   3717      1     38    150      0.1000E-01       62.50    
   3718      1     38    151      0.1000E-01       62.50    
   3719      1     38    152      0.1000E-01       62.50    
   3720      1     38    153      0.1000E-01       62.50    
   3721      1     38    154      0.1000E-01       62.50    
   3722      1     38    155      0.1000E-01       62.50    
   3723      1     38    156      0.1000E-01       62.50    
   3724      1     38    157      0.1000E-01       62.50    
   3725      1     38    158      0.1000E-01       62.50    
   3726      1     38    159      0.1000E-01       62.50    
   3727      1     38    160      0.1000E-01       62.50    
   3728      1     38    161      0.1000E-01       62.50    
   3729      1     38    162      0.1000E-01       62.50    
   3730      1     38    163      0.1000E-01       62.50    
   3731      1     38    164      0.1000E-01       62.50    
   3732      1     38    165      0.1000E-01       62.50    
   3733      1     38    166      0.1000E-01       62.50    
   3734      1     38    167      0.1000E-01       62.50    
   3735      1     38    168      0.1000E-01       62.50    
   3736      1     38    169      0.1000E-01       62.50    
   3737      1     38    170      0.1000E-01       62.50    
   3738      1     38    171      0.1000E-01       62.50    
   3739      1     38    172      0.1000E-01       62.50    
   3740      1     38    173      0.1000E-01       62.50    
   3741      1     38    174      0.1000E-01       62.50    
   3742      1     38    175      0.1000E-01       62.50    
   3743      1     38    176      0.1000E-01       62.50    
   3744      1     38    177      0.1000E-01       62.50    
   3745      1     38    178      0.1000E-01       62.50    
   3746      1     38    179      0.1000E-01       62.50    
   3747      1     38    180      0.1000E-01       62.50    
   3748      1     38    181      0.1000E-01       62.50    
   3749      1     38    182      0.1000E-01       62.50    
   3750      1     38    183      0.1000E-01       62.50    
   3751      1     38    184      0.1000E-01       62.50    
   3752      1     38    185      0.1000E-01       62.50    
   3753      1     38    186      0.1000E-01       62.50    
   3754      1     38    187      0.1000E-01       62.50    
   3755      1     38    188      0.1000E-01       62.50    
   3756      1     38    189      0.1000E-01       62.50    
   3757      1     38    190      0.1000E-01       62.50    
   3758      1     38    191      0.1000E-01       62.50    
   3759      1     38    192      0.1000E-01       62.50    
   3760      1     38    193      0.1000E-01       62.50    
   3761      1     38    194      0.1000E-01       62.50    
   3762      1     38    195      0.1000E-01       62.50    
   3763      1     38    196      0.1000E-01       62.50    
   3764      1     38    197      0.1000E-01       62.50    
   3765      1     38    198      0.1000E-01       62.50    
   3766      1     38    199      0.1000E-01       62.50    
   3767      1     39      2      0.1000E-01       62.50    
   3768      1     39      3      0.1000E-01       62.50    
   3769      1     39      4      0.1000E-01       62.50    
   3770      1     39      5      0.1000E-01       62.50    
   3771      1     39      6      0.1000E-01       62.50    
   3772      1     39      7      0.1000E-01       62.50    
   3773      1     39      8      0.1000E-01       62.50    
   3774      1     39      9      0.1000E-01       62.50    
   3775      1     39     10      0.1000E-01       62.50    
   3776      1     39     11      0.1000E-01       62.50    
   3777      1     39     12      0.1000E-01       62.50    
   3778      1     39     13      0.1000E-01       62.50    
   3779      1     39     14      0.1000E-01       62.50    
   3780      1     39     15      0.1000E-01       62.50    
   3781      1     39     16      0.1000E-01       62.50    
   3782      1     39     17      0.1000E-01       62.50    
   3783      1     39     18      0.1000E-01       62.50    
   3784      1     39     19      0.1000E-01       62.50    
   3785      1     39     20      0.1000E-01       62.50    
   3786      1     39     21      0.1000E-01       62.50    
   3787      1     39     22      0.1000E-01       62.50    
   3788      1     39     23      0.1000E-01       62.50    
   3789      1     39     24      0.1000E-01       62.50    
   3790      1     39     25      0.1000E-01       62.50    
   3791      1     39     26      0.1000E-01       62.50    
   3792      1     39     27      0.1000E-01       62.50    
   3793      1     39     28      0.1000E-01       62.50    
   3794      1     39     29      0.1000E-01       62.50    
   3795      1     39     30      0.1000E-01       62.50    
   3796      1     39     31      0.1000E-01       62.50    
   3797      1     39     32      0.1000E-01       62.50    
   3798      1     39     33      0.1000E-01       62.50    
   3799      1     39     34      0.1000E-01       62.50    
   3800      1     39     35      0.1000E-01       62.50    
   3801      1     39     36      0.1000E-01       62.50    
   3802      1     39     37      0.1000E-01       62.50    
   3803      1     39     38      0.1000E-01       62.50    
   3804      1     39     39      0.1000E-01       62.50    
   3805      1     39     40      0.1000E-01       62.50    
   3806      1     39     41      0.1000E-01       62.50    
   3807      1     39     42      0.1000E-01       62.50    
   3808      1     39     43      0.1000E-01       62.50    
   3809      1     39     44      0.1000E-01       62.50    
   3810      1     39     45      0.1000E-01       62.50    
   3811      1     39     46      0.1000E-01       62.50    
   3812      1     39     47      0.1000E-01       62.50    
   3813      1     39     49      0.1000E-01       62.50    
   3814      1     39     50      0.1000E-01       62.50    
   3815      1     39     51      0.1000E-01       62.50    
   3816      1     39     52      0.1000E-01       62.50    
   3817      1     39     53      0.1000E-01       62.50    
   3818      1     39     54      0.1000E-01       62.50    
   3819      1     39     55      0.1000E-01       62.50    
   3820      1     39     56      0.1000E-01       62.50    
   3821      1     39     57      0.1000E-01       62.50    
   3822      1     39     58      0.1000E-01       62.50    
   3823      1     39     59      0.1000E-01       62.50    
   3824      1     39     60      0.1000E-01       62.50    
   3825      1     39     61      0.1000E-01       62.50    
   3826      1     39     64      0.1000E-01       62.50    
   3827      1     39     65      0.1000E-01       62.50    
   3828      1     39     66      0.1000E-01       62.50    
   3829      1     39     67      0.1000E-01       62.50    
   3830      1     39     68      0.1000E-01       62.50    
   3831      1     39     69      0.1000E-01       62.50    
   3832      1     39     70      0.1000E-01       62.50    
   3833      1     39     71      0.1000E-01       62.50    
   3834      1     39     72      0.1000E-01       62.50    
   3835      1     39     73      0.1000E-01       62.50    
   3836      1     39     74      0.1000E-01       62.50    
   3837      1     39     75      0.1000E-01       62.50    
   3838      1     39     76      0.1000E-01       62.50    
   3839      1     39    116      0.1000E-01       62.50    
   3840      1     39    117      0.1000E-01       62.50    
   3841      1     39    118      0.1000E-01       62.50    
   3842      1     39    119      0.1000E-01       62.50    
   3843      1     39    120      0.1000E-01       62.50    
   3844      1     39    121      0.1000E-01       62.50    
   3845      1     39    122      0.1000E-01       62.50    
   3846      1     39    123      0.1000E-01       62.50    
   3847      1     39    124      0.1000E-01       62.50    
   3848      1     39    125      0.1000E-01       62.50    
   3849      1     39    132      0.1000E-01       62.50    
   3850      1     39    134      0.1000E-01       62.50    
   3851      1     39    135      0.1000E-01       62.50    
   3852      1     39    136      0.1000E-01       62.50    
   3853      1     39    137      0.1000E-01       62.50    
   3854      1     39    138      0.1000E-01       62.50    
   3855      1     39    139      0.1000E-01       62.50    
   3856      1     39    140      0.1000E-01       62.50    
   3857      1     39    141      0.1000E-01       62.50    
   3858      1     39    142      0.1000E-01       62.50    
   3859      1     39    143      0.1000E-01       62.50    
   3860      1     39    144      0.1000E-01       62.50    
   3861      1     39    145      0.1000E-01       62.50    
   3862      1     39    146      0.1000E-01       62.50    
   3863      1     39    147      0.1000E-01       62.50    
   3864      1     39    148      0.1000E-01       62.50    
   3865      1     39    149      0.1000E-01       62.50    
   3866      1     39    150      0.1000E-01       62.50    
   3867      1     39    151      0.1000E-01       62.50    
   3868      1     39    152      0.1000E-01       62.50    
   3869      1     39    153      0.1000E-01       62.50    
   3870      1     39    154      0.1000E-01       62.50    
   3871      1     39    155      0.1000E-01       62.50    
   3872      1     39    156      0.1000E-01       62.50    
   3873      1     39    157      0.1000E-01       62.50    
   3874      1     39    158      0.1000E-01       62.50    
   3875      1     39    159      0.1000E-01       62.50    
   3876      1     39    160      0.1000E-01       62.50    
   3877      1     39    161      0.1000E-01       62.50    
   3878      1     39    162      0.1000E-01       62.50    
   3879      1     39    163      0.1000E-01       62.50    
   3880      1     39    164      0.1000E-01       62.50    
   3881      1     39    165      0.1000E-01       62.50    
   3882      1     39    166      0.1000E-01       62.50    
   3883      1     39    167      0.1000E-01       62.50    
   3884      1     39    168      0.1000E-01       62.50    
   3885      1     39    169      0.1000E-01       62.50    
   3886      1     39    170      0.1000E-01       62.50    
   3887      1     39    171      0.1000E-01       62.50    
   3888      1     39    172      0.1000E-01       62.50    
   3889      1     39    173      0.1000E-01       62.50    
   3890      1     39    174      0.1000E-01       62.50    
   3891      1     39    175      0.1000E-01       62.50    
   3892      1     39    176      0.1000E-01       62.50    
   3893      1     39    177      0.1000E-01       62.50    
   3894      1     39    178      0.1000E-01       62.50    
   3895      1     39    179      0.1000E-01       62.50    
   3896      1     39    180      0.1000E-01       62.50    
   3897      1     39    181      0.1000E-01       62.50    
   3898      1     39    182      0.1000E-01       62.50    
   3899      1     39    183      0.1000E-01       62.50    
   3900      1     39    184      0.1000E-01       62.50    
   3901      1     39    185      0.1000E-01       62.50    
   3902      1     39    186      0.1000E-01       62.50    
   3903      1     39    187      0.1000E-01       62.50    
   3904      1     39    188      0.1000E-01       62.50    
   3905      1     39    189      0.1000E-01       62.50    
   3906      1     39    190      0.1000E-01       62.50    
   3907      1     39    191      0.1000E-01       62.50    
   3908      1     39    192      0.1000E-01       62.50    
   3909      1     39    193      0.1000E-01       62.50    
   3910      1     39    194      0.1000E-01       62.50    
   3911      1     39    195      0.1000E-01       62.50    
   3912      1     39    196      0.1000E-01       62.50    
   3913      1     39    197      0.1000E-01       62.50    
   3914      1     39    198      0.1000E-01       62.50    
   3915      1     39    199      0.1000E-01       62.50    
   3916      1     40      2      0.1000E-01       62.50    
   3917      1     40      3      0.1000E-01       62.50    
   3918      1     40      4      0.1000E-01       62.50    
   3919      1     40      5      0.1000E-01       62.50    
   3920      1     40      6      0.1000E-01       62.50    
   3921      1     40      7      0.1000E-01       62.50    
   3922      1     40      8      0.1000E-01       62.50    
   3923      1     40      9      0.1000E-01       62.50    
   3924      1     40     10      0.1000E-01       62.50    
   3925      1     40     11      0.1000E-01       62.50    
   3926      1     40     12      0.1000E-01       62.50    
   3927      1     40     13      0.1000E-01       62.50    
   3928      1     40     14      0.1000E-01       62.50    
   3929      1     40     15      0.1000E-01       62.50    
   3930      1     40     16      0.1000E-01       62.50    
   3931      1     40     17      0.1000E-01       62.50    
   3932      1     40     18      0.1000E-01       62.50    
   3933      1     40     19      0.1000E-01       62.50    
   3934      1     40     20      0.1000E-01       62.50    
   3935      1     40     21      0.1000E-01       62.50    
   3936      1     40     22      0.1000E-01       62.50    
   3937      1     40     23      0.1000E-01       62.50    
   3938      1     40     24      0.1000E-01       62.50    
   3939      1     40     25      0.1000E-01       62.50    
   3940      1     40     26      0.1000E-01       62.50    
   3941      1     40     27      0.1000E-01       62.50    
   3942      1     40     28      0.1000E-01       62.50    
   3943      1     40     29      0.1000E-01       62.50    
   3944      1     40     30      0.1000E-01       62.50    
   3945      1     40     31      0.1000E-01       62.50    
   3946      1     40     32      0.1000E-01       62.50    
   3947      1     40     33      0.1000E-01       62.50    
   3948      1     40     34      0.1000E-01       62.50    
   3949      1     40     35      0.1000E-01       62.50    
   3950      1     40     36      0.1000E-01       62.50    
   3951      1     40     37      0.1000E-01       62.50    
   3952      1     40     38      0.1000E-01       62.50    
   3953      1     40     40      0.1000E-01       62.50    
   3954      1     40     41      0.1000E-01       62.50    
   3955      1     40     42      0.1000E-01       62.50    
   3956      1     40     43      0.1000E-01       62.50    
   3957      1     40     45      0.1000E-01       62.50    
   3958      1     40     46      0.1000E-01       62.50    
   3959      1     40     50      0.1000E-01       62.50    
   3960      1     40     51      0.1000E-01       62.50    
   3961      1     40     52      0.1000E-01       62.50    
   3962      1     40     53      0.1000E-01       62.50    
   3963      1     40     54      0.1000E-01       62.50    
   3964      1     40     55      0.1000E-01       62.50    
   3965      1     40     56      0.1000E-01       62.50    
   3966      1     40     57      0.1000E-01       62.50    
   3967      1     40     63      0.1000E-01       62.50    
   3968      1     40     64      0.1000E-01       62.50    
   3969      1     40     65      0.1000E-01       62.50    
   3970      1     40     66      0.1000E-01       62.50    
   3971      1     40     67      0.1000E-01       62.50    
   3972      1     40     68      0.1000E-01       62.50    
   3973      1     40     69      0.1000E-01       62.50    
   3974      1     40     70      0.1000E-01       62.50    
   3975      1     40     71      0.1000E-01       62.50    
   3976      1     40     72      0.1000E-01       62.50    
   3977      1     40     73      0.1000E-01       62.50    
   3978      1     40     74      0.1000E-01       62.50    
   3979      1     40     75      0.1000E-01       62.50    
   3980      1     40     76      0.1000E-01       62.50    
   3981      1     40    114      0.1000E-01       62.50    
   3982      1     40    115      0.1000E-01       62.50    
   3983      1     40    116      0.1000E-01       62.50    
   3984      1     40    117      0.1000E-01       62.50    
   3985      1     40    118      0.1000E-01       62.50    
   3986      1     40    119      0.1000E-01       62.50    
   3987      1     40    120      0.1000E-01       62.50    
   3988      1     40    121      0.1000E-01       62.50    
   3989      1     40    122      0.1000E-01       62.50    
   3990      1     40    123      0.1000E-01       62.50    
   3991      1     40    124      0.1000E-01       62.50    
   3992      1     40    126      0.1000E-01       62.50    
   3993      1     40    127      0.1000E-01       62.50    
   3994      1     40    128      0.1000E-01       62.50    
   3995      1     40    129      0.1000E-01       62.50    
   3996      1     40    130      0.1000E-01       62.50    
   3997      1     40    131      0.1000E-01       62.50    
   3998      1     40    132      0.1000E-01       62.50    
   3999      1     40    133      0.1000E-01       62.50    
   4000      1     40    134      0.1000E-01       62.50    
   4001      1     40    135      0.1000E-01       62.50    
   4002      1     40    136      0.1000E-01       62.50    
   4003      1     40    137      0.1000E-01       62.50    
   4004      1     40    138      0.1000E-01       62.50    
   4005      1     40    139      0.1000E-01       62.50    
   4006      1     40    140      0.1000E-01       62.50    
   4007      1     40    141      0.1000E-01       62.50    
   4008      1     40    142      0.1000E-01       62.50    
   4009      1     40    143      0.1000E-01       62.50    
   4010      1     40    144      0.1000E-01       62.50    
   4011      1     40    145      0.1000E-01       62.50    
   4012      1     40    146      0.1000E-01       62.50    
   4013      1     40    147      0.1000E-01       62.50    
   4014      1     40    148      0.1000E-01       62.50    
   4015      1     40    149      0.1000E-01       62.50    
   4016      1     40    150      0.1000E-01       62.50    
   4017      1     40    151      0.1000E-01       62.50    
   4018      1     40    152      0.1000E-01       62.50    
   4019      1     40    153      0.1000E-01       62.50    
   4020      1     40    154      0.1000E-01       62.50    
   4021      1     40    155      0.1000E-01       62.50    
   4022      1     40    156      0.1000E-01       62.50    
   4023      1     40    157      0.1000E-01       62.50    
   4024      1     40    158      0.1000E-01       62.50    
   4025      1     40    159      0.1000E-01       62.50    
   4026      1     40    160      0.1000E-01       62.50    
   4027      1     40    161      0.1000E-01       62.50    
   4028      1     40    162      0.1000E-01       62.50    
   4029      1     40    163      0.1000E-01       62.50    
   4030      1     40    164      0.1000E-01       62.50    
   4031      1     40    165      0.1000E-01       62.50    
   4032      1     40    166      0.1000E-01       62.50    
   4033      1     40    167      0.1000E-01       62.50    
   4034      1     40    168      0.1000E-01       62.50    
   4035      1     40    169      0.1000E-01       62.50    
   4036      1     40    170      0.1000E-01       62.50    
   4037      1     40    171      0.1000E-01       62.50    
   4038      1     40    172      0.1000E-01       62.50    
   4039      1     40    173      0.1000E-01       62.50    
   4040      1     40    174      0.1000E-01       62.50    
   4041      1     40    175      0.1000E-01       62.50    
   4042      1     40    176      0.1000E-01       62.50    
   4043      1     40    177      0.1000E-01       62.50    
   4044      1     40    178      0.1000E-01       62.50    
   4045      1     40    179      0.1000E-01       62.50    
   4046      1     40    180      0.1000E-01       62.50    
   4047      1     40    181      0.1000E-01       62.50    
   4048      1     40    182      0.1000E-01       62.50    
   4049      1     40    183      0.1000E-01       62.50    
   4050      1     40    184      0.1000E-01       62.50    
   4051      1     40    185      0.1000E-01       62.50    
   4052      1     40    186      0.1000E-01       62.50    
   4053      1     40    187      0.1000E-01       62.50    
   4054      1     40    188      0.1000E-01       62.50    
   4055      1     40    189      0.1000E-01       62.50    
   4056      1     40    190      0.1000E-01       62.50    
   4057      1     40    191      0.1000E-01       62.50    
   4058      1     40    192      0.1000E-01       62.50    
   4059      1     40    193      0.1000E-01       62.50    
   4060      1     40    194      0.1000E-01       62.50    
   4061      1     40    195      0.1000E-01       62.50    
   4062      1     40    196      0.1000E-01       62.50    
   4063      1     40    197      0.1000E-01       62.50    
   4064      1     40    198      0.1000E-01       62.50    
   4065      1     40    199      0.1000E-01       62.50    
   4066      1     41      2      0.1000E-01       62.50    
   4067      1     41      3      0.1000E-01       62.50    
   4068      1     41      4      0.1000E-01       62.50    
   4069      1     41      5      0.1000E-01       62.50    
   4070      1     41      6      0.1000E-01       62.50    
   4071      1     41      7      0.1000E-01       62.50    
   4072      1     41      8      0.1000E-01       62.50    
   4073      1     41      9      0.1000E-01       62.50    
   4074      1     41     10      0.1000E-01       62.50    
   4075      1     41     11      0.1000E-01       62.50    
   4076      1     41     12      0.1000E-01       62.50    
   4077      1     41     13      0.1000E-01       62.50    
   4078      1     41     14      0.1000E-01       62.50    
   4079      1     41     15      0.1000E-01       62.50    
   4080      1     41     16      0.1000E-01       62.50    
   4081      1     41     17      0.1000E-01       62.50    
   4082      1     41     18      0.1000E-01       62.50    
   4083      1     41     19      0.1000E-01       62.50    
   4084      1     41     20      0.1000E-01       62.50    
   4085      1     41     21      0.1000E-01       62.50    
   4086      1     41     22      0.1000E-01       62.50    
   4087      1     41     23      0.1000E-01       62.50    
   4088      1     41     24      0.1000E-01       62.50    
   4089      1     41     25      0.1000E-01       62.50    
   4090      1     41     26      0.1000E-01       62.50    
   4091      1     41     27      0.1000E-01       62.50    
   4092      1     41     28      0.1000E-01       62.50    
   4093      1     41     29      0.1000E-01       62.50    
   4094      1     41     30      0.1000E-01       62.50    
   4095      1     41     31      0.1000E-01       62.50    
   4096      1     41     32      0.1000E-01       62.50    
   4097      1     41     33      0.1000E-01       62.50    
   4098      1     41     34      0.1000E-01       62.50    
   4099      1     41     35      0.1000E-01       62.50    
   4100      1     41     36      0.1000E-01       62.50    
   4101      1     41     37      0.1000E-01       62.50    
   4102      1     41     38      0.1000E-01       62.50    
   4103      1     41     41      0.1000E-01       62.50    
   4104      1     41     42      0.1000E-01       62.50    
   4105      1     41     43      0.1000E-01       62.50    
   4106      1     41     50      0.1000E-01       62.50    
   4107      1     41     51      0.1000E-01       62.50    
   4108      1     41     52      0.1000E-01       62.50    
   4109      1     41     53      0.1000E-01       62.50    
   4110      1     41     54      0.1000E-01       62.50    
   4111      1     41     55      0.1000E-01       62.50    
   4112      1     41     56      0.1000E-01       62.50    
   4113      1     41     63      0.1000E-01       62.50    
   4114      1     41     64      0.1000E-01       62.50    
   4115      1     41     67      0.1000E-01       62.50    
   4116      1     41     68      0.1000E-01       62.50    
   4117      1     41     69      0.1000E-01       62.50    
   4118      1     41     70      0.1000E-01       62.50    
   4119      1     41     72      0.1000E-01       62.50    
   4120      1     41     73      0.1000E-01       62.50    
   4121      1     41     74      0.1000E-01       62.50    
   4122      1     41    113      0.1000E-01       62.50    
   4123      1     41    114      0.1000E-01       62.50    
   4124      1     41    115      0.1000E-01       62.50    
   4125      1     41    116      0.1000E-01       62.50    
   4126      1     41    117      0.1000E-01       62.50    
   4127      1     41    118      0.1000E-01       62.50    
   4128      1     41    119      0.1000E-01       62.50    
   4129      1     41    120      0.1000E-01       62.50    
   4130      1     41    121      0.1000E-01       62.50    
   4131      1     41    122      0.1000E-01       62.50    
   4132      1     41    123      0.1000E-01       62.50    
   4133      1     41    124      0.1000E-01       62.50    
   4134      1     41    125      0.1000E-01       62.50    
   4135      1     41    126      0.1000E-01       62.50    
   4136      1     41    127      0.1000E-01       62.50    
   4137      1     41    128      0.1000E-01       62.50    
   4138      1     41    129      0.1000E-01       62.50    
   4139      1     41    130      0.1000E-01       62.50    
   4140      1     41    131      0.1000E-01       62.50    
   4141      1     41    132      0.1000E-01       62.50    
   4142      1     41    133      0.1000E-01       62.50    
   4143      1     41    134      0.1000E-01       62.50    
   4144      1     41    135      0.1000E-01       62.50    
   4145      1     41    136      0.1000E-01       62.50    
   4146      1     41    137      0.1000E-01       62.50    
   4147      1     41    138      0.1000E-01       62.50    
   4148      1     41    139      0.1000E-01       62.50    
   4149      1     41    140      0.1000E-01       62.50    
   4150      1     41    141      0.1000E-01       62.50    
   4151      1     41    142      0.1000E-01       62.50    
   4152      1     41    143      0.1000E-01       62.50    
   4153      1     41    144      0.1000E-01       62.50    
   4154      1     41    145      0.1000E-01       62.50    
   4155      1     41    146      0.1000E-01       62.50    
   4156      1     41    147      0.1000E-01       62.50    
   4157      1     41    148      0.1000E-01       62.50    
   4158      1     41    149      0.1000E-01       62.50    
   4159      1     41    150      0.1000E-01       62.50    
   4160      1     41    151      0.1000E-01       62.50    
   4161      1     41    152      0.1000E-01       62.50    
   4162      1     41    153      0.1000E-01       62.50    
   4163      1     41    154      0.1000E-01       62.50    
   4164      1     41    155      0.1000E-01       62.50    
   4165      1     41    156      0.1000E-01       62.50    
   4166      1     41    157      0.1000E-01       62.50    
   4167      1     41    158      0.1000E-01       62.50    
   4168      1     41    159      0.1000E-01       62.50    
   4169      1     41    160      0.1000E-01       62.50    
   4170      1     41    161      0.1000E-01       62.50    
   4171      1     41    162      0.1000E-01       62.50    
   4172      1     41    163      0.1000E-01       62.50    
   4173      1     41    164      0.1000E-01       62.50    
   4174      1     41    165      0.1000E-01       62.50    
   4175      1     41    166      0.1000E-01       62.50    
   4176      1     41    167      0.1000E-01       62.50    
   4177      1     41    168      0.1000E-01       62.50    
   4178      1     41    169      0.1000E-01       62.50    
   4179      1     41    170      0.1000E-01       62.50    
   4180      1     41    171      0.1000E-01       62.50    
   4181      1     41    172      0.1000E-01       62.50    
   4182      1     41    173      0.1000E-01       62.50    
   4183      1     41    174      0.1000E-01       62.50    
   4184      1     41    175      0.1000E-01       62.50    
   4185      1     41    176      0.1000E-01       62.50    
   4186      1     41    177      0.1000E-01       62.50    
   4187      1     41    178      0.1000E-01       62.50    
   4188      1     41    179      0.1000E-01       62.50    
   4189      1     41    180      0.1000E-01       62.50    
   4190      1     41    181      0.1000E-01       62.50    
   4191      1     41    182      0.1000E-01       62.50    
   4192      1     41    183      0.1000E-01       62.50    
   4193      1     41    184      0.1000E-01       62.50    
   4194      1     41    185      0.1000E-01       62.50    
   4195      1     41    186      0.1000E-01       62.50    
   4196      1     41    187      0.1000E-01       62.50    
   4197      1     41    188      0.1000E-01       62.50    
   4198      1     41    189      0.1000E-01       62.50    
   4199      1     41    190      0.1000E-01       62.50    
   4200      1     41    191      0.1000E-01       62.50    
   4201      1     41    192      0.1000E-01       62.50    
   4202      1     41    193      0.1000E-01       62.50    
   4203      1     41    194      0.1000E-01       62.50    
   4204      1     41    195      0.1000E-01       62.50    
   4205      1     41    196      0.1000E-01       62.50    
   4206      1     41    197      0.1000E-01       62.50    
   4207      1     41    198      0.1000E-01       62.50    
   4208      1     41    199      0.1000E-01       62.50    
   4209      1     42      2      0.1000E-01       62.50    
   4210      1     42      3      0.1000E-01       62.50    
   4211      1     42      4      0.1000E-01       62.50    
   4212      1     42      5      0.1000E-01       62.50    
   4213      1     42      6      0.1000E-01       62.50    
   4214      1     42      7      0.1000E-01       62.50    
   4215      1     42      8      0.1000E-01       62.50    
   4216      1     42      9      0.1000E-01       62.50    
   4217      1     42     10      0.1000E-01       62.50    
   4218      1     42     11      0.1000E-01       62.50    
   4219      1     42     12      0.1000E-01       62.50    
   4220      1     42     13      0.1000E-01       62.50    
   4221      1     42     14      0.1000E-01       62.50    
   4222      1     42     15      0.1000E-01       62.50    
   4223      1     42     16      0.1000E-01       62.50    
   4224      1     42     17      0.1000E-01       62.50    
   4225      1     42     18      0.1000E-01       62.50    
   4226      1     42     19      0.1000E-01       62.50    
   4227      1     42     20      0.1000E-01       62.50    
   4228      1     42     21      0.1000E-01       62.50    
   4229      1     42     22      0.1000E-01       62.50    
   4230      1     42     23      0.1000E-01       62.50    
   4231      1     42     24      0.1000E-01       62.50    
   4232      1     42     25      0.1000E-01       62.50    
   4233      1     42     26      0.1000E-01       62.50    
   4234      1     42     27      0.1000E-01       62.50    
   4235      1     42     28      0.1000E-01       62.50    
   4236      1     42     29      0.1000E-01       62.50    
   4237      1     42     30      0.1000E-01       62.50    
   4238      1     42     31      0.1000E-01       62.50    
   4239      1     42     32      0.1000E-01       62.50    
   4240      1     42     33      0.1000E-01       62.50    
   4241      1     42     37      0.1000E-01       62.50    
   4242      1     42     50      0.1000E-01       62.50    
   4243      1     42     51      0.1000E-01       62.50    
   4244      1     42     67      0.1000E-01       62.50    
   4245      1     42     68      0.1000E-01       62.50    
   4246      1     42     69      0.1000E-01       62.50    
   4247      1     42    115      0.1000E-01       62.50    
   4248      1     42    116      0.1000E-01       62.50    
   4249      1     42    117      0.1000E-01       62.50    
   4250      1     42    118      0.1000E-01       62.50    
   4251      1     42    119      0.1000E-01       62.50    
   4252      1     42    120      0.1000E-01       62.50    
   4253      1     42    121      0.1000E-01       62.50    
   4254      1     42    122      0.1000E-01       62.50    
   4255      1     42    123      0.1000E-01       62.50    
   4256      1     42    124      0.1000E-01       62.50    
   4257      1     42    125      0.1000E-01       62.50    
   4258      1     42    126      0.1000E-01       62.50    
   4259      1     42    127      0.1000E-01       62.50    
   4260      1     42    128      0.1000E-01       62.50    
   4261      1     42    129      0.1000E-01       62.50    
   4262      1     42    130      0.1000E-01       62.50    
   4263      1     42    131      0.1000E-01       62.50    
   4264      1     42    132      0.1000E-01       62.50    
   4265      1     42    133      0.1000E-01       62.50    
   4266      1     42    134      0.1000E-01       62.50    
   4267      1     42    135      0.1000E-01       62.50    
   4268      1     42    136      0.1000E-01       62.50    
   4269      1     42    137      0.1000E-01       62.50    
   4270      1     42    138      0.1000E-01       62.50    
   4271      1     42    139      0.1000E-01       62.50    
   4272      1     42    140      0.1000E-01       62.50    
   4273      1     42    141      0.1000E-01       62.50    
   4274      1     42    142      0.1000E-01       62.50    
   4275      1     42    143      0.1000E-01       62.50    
   4276      1     42    144      0.1000E-01       62.50    
   4277      1     42    145      0.1000E-01       62.50    
   4278      1     42    146      0.1000E-01       62.50    
   4279      1     42    147      0.1000E-01       62.50    
   4280      1     42    148      0.1000E-01       62.50    
   4281      1     42    149      0.1000E-01       62.50    
   4282      1     42    150      0.1000E-01       62.50    
   4283      1     42    151      0.1000E-01       62.50    
   4284      1     42    152      0.1000E-01       62.50    
   4285      1     42    153      0.1000E-01       62.50    
   4286      1     42    154      0.1000E-01       62.50    
   4287      1     42    155      0.1000E-01       62.50    
   4288      1     42    156      0.1000E-01       62.50    
   4289      1     42    157      0.1000E-01       62.50    
   4290      1     42    158      0.1000E-01       62.50    
   4291      1     42    159      0.1000E-01       62.50    
   4292      1     42    160      0.1000E-01       62.50    
   4293      1     42    161      0.1000E-01       62.50    
   4294      1     42    162      0.1000E-01       62.50    
   4295      1     42    163      0.1000E-01       62.50    
   4296      1     42    164      0.1000E-01       62.50    
   4297      1     42    165      0.1000E-01       62.50    
   4298      1     42    166      0.1000E-01       62.50    
   4299      1     42    167      0.1000E-01       62.50    
   4300      1     42    168      0.1000E-01       62.50    
   4301      1     42    169      0.1000E-01       62.50    
   4302      1     42    170      0.1000E-01       62.50    
   4303      1     42    171      0.1000E-01       62.50    
   4304      1     42    172      0.1000E-01       62.50    
   4305      1     42    173      0.1000E-01       62.50    
   4306      1     42    174      0.1000E-01       62.50    
   4307      1     42    175      0.1000E-01       62.50    
   4308      1     42    176      0.1000E-01       62.50    
   4309      1     42    177      0.1000E-01       62.50    
   4310      1     42    178      0.1000E-01       62.50    
   4311      1     42    179      0.1000E-01       62.50    
   4312      1     42    180      0.1000E-01       62.50    
   4313      1     42    181      0.1000E-01       62.50    
   4314      1     42    182      0.1000E-01       62.50    
   4315      1     42    183      0.1000E-01       62.50    
   4316      1     42    184      0.1000E-01       62.50    
   4317      1     42    185      0.1000E-01       62.50    
   4318      1     42    186      0.1000E-01       62.50    
   4319      1     42    187      0.1000E-01       62.50    
   4320      1     42    188      0.1000E-01       62.50    
   4321      1     42    189      0.1000E-01       62.50    
   4322      1     42    190      0.1000E-01       62.50    
   4323      1     42    191      0.1000E-01       62.50    
   4324      1     42    192      0.1000E-01       62.50    
   4325      1     42    193      0.1000E-01       62.50    
   4326      1     42    194      0.1000E-01       62.50    
   4327      1     42    195      0.1000E-01       62.50    
   4328      1     42    196      0.1000E-01       62.50    
   4329      1     42    197      0.1000E-01       62.50    
   4330      1     42    198      0.1000E-01       62.50    
   4331      1     42    199      0.1000E-01       62.50    
   4332      1     43      2      0.1000E-01       62.50    
   4333      1     43      3      0.1000E-01       62.50    
   4334      1     43      4      0.1000E-01       62.50    
   4335      1     43      5      0.1000E-01       62.50    
   4336      1     43      6      0.1000E-01       62.50    
   4337      1     43      7      0.1000E-01       62.50    
   4338      1     43      8      0.1000E-01       62.50    
   4339      1     43      9      0.1000E-01       62.50    
   4340      1     43     10      0.1000E-01       62.50    
   4341      1     43     11      0.1000E-01       62.50    
   4342      1     43     12      0.1000E-01       62.50    
   4343      1     43     13      0.1000E-01       62.50    
   4344      1     43     14      0.1000E-01       62.50    
   4345      1     43     15      0.1000E-01       62.50    
   4346      1     43     16      0.1000E-01       62.50    
   4347      1     43     17      0.1000E-01       62.50    
   4348      1     43     18      0.1000E-01       62.50    
   4349      1     43     19      0.1000E-01       62.50    
   4350      1     43     20      0.1000E-01       62.50    
   4351      1     43     21      0.1000E-01       62.50    
   4352      1     43     22      0.1000E-01       62.50    
   4353      1     43     23      0.1000E-01       62.50    
   4354      1     43     24      0.1000E-01       62.50    
   4355      1     43     25      0.1000E-01       62.50    
   4356      1     43     26      0.1000E-01       62.50    
   4357      1     43     27      0.1000E-01       62.50    
   4358      1     43     28      0.1000E-01       62.50    
   4359      1     43     29      0.1000E-01       62.50    
   4360      1     43     30      0.1000E-01       62.50    
   4361      1     43     31      0.1000E-01       62.50    
   4362      1     43     32      0.1000E-01       62.50    
   4363      1     43     51      0.1000E-01       62.50    
   4364      1     43     68      0.1000E-01       62.50    
   4365      1     43    117      0.1000E-01       62.50    
   4366      1     43    118      0.1000E-01       62.50    
   4367      1     43    119      0.1000E-01       62.50    
   4368      1     43    120      0.1000E-01       62.50    
   4369      1     43    121      0.1000E-01       62.50    
   4370      1     43    122      0.1000E-01       62.50    
   4371      1     43    123      0.1000E-01       62.50    
   4372      1     43    124      0.1000E-01       62.50    
   4373      1     43    125      0.1000E-01       62.50    
   4374      1     43    126      0.1000E-01       62.50    
   4375      1     43    127      0.1000E-01       62.50    
   4376      1     43    128      0.1000E-01       62.50    
   4377      1     43    129      0.1000E-01       62.50    
   4378      1     43    130      0.1000E-01       62.50    
   4379      1     43    131      0.1000E-01       62.50    
   4380      1     43    132      0.1000E-01       62.50    
   4381      1     43    133      0.1000E-01       62.50    
   4382      1     43    134      0.1000E-01       62.50    
   4383      1     43    135      0.1000E-01       62.50    
   4384      1     43    136      0.1000E-01       62.50    
   4385      1     43    137      0.1000E-01       62.50    
   4386      1     43    138      0.1000E-01       62.50    
   4387      1     43    139      0.1000E-01       62.50    
   4388      1     43    140      0.1000E-01       62.50    
   4389      1     43    141      0.1000E-01       62.50    
   4390      1     43    142      0.1000E-01       62.50    
   4391      1     43    143      0.1000E-01       62.50    
   4392      1     43    144      0.1000E-01       62.50    
   4393      1     43    145      0.1000E-01       62.50    
   4394      1     43    146      0.1000E-01       62.50    
   4395      1     43    147      0.1000E-01       62.50    
   4396      1     43    148      0.1000E-01       62.50    
   4397      1     43    149      0.1000E-01       62.50    
   4398      1     43    150      0.1000E-01       62.50    
   4399      1     43    151      0.1000E-01       62.50    
   4400      1     43    152      0.1000E-01       62.50    
   4401      1     43    153      0.1000E-01       62.50    
   4402      1     43    154      0.1000E-01       62.50    
   4403      1     43    155      0.1000E-01       62.50    
   4404      1     43    156      0.1000E-01       62.50    
   4405      1     43    157      0.1000E-01       62.50    
   4406      1     43    158      0.1000E-01       62.50    
   4407      1     43    159      0.1000E-01       62.50    
   4408      1     43    160      0.1000E-01       62.50    
   4409      1     43    161      0.1000E-01       62.50    
   4410      1     43    162      0.1000E-01       62.50    
   4411      1     43    163      0.1000E-01       62.50    
   4412      1     43    164      0.1000E-01       62.50    
   4413      1     43    165      0.1000E-01       62.50    
   4414      1     43    166      0.1000E-01       62.50    
   4415      1     43    167      0.1000E-01       62.50    
   4416      1     43    168      0.1000E-01       62.50    
   4417      1     43    169      0.1000E-01       62.50    
   4418      1     43    170      0.1000E-01       62.50    
   4419      1     43    171      0.1000E-01       62.50    
   4420      1     43    172      0.1000E-01       62.50    
   4421      1     43    173      0.1000E-01       62.50    
   4422      1     43    174      0.1000E-01       62.50    
   4423      1     43    175      0.1000E-01       62.50    
   4424      1     43    176      0.1000E-01       62.50    
   4425      1     43    177      0.1000E-01       62.50    
   4426      1     43    178      0.1000E-01       62.50    
   4427      1     43    179      0.1000E-01       62.50    
   4428      1     43    180      0.1000E-01       62.50    
   4429      1     43    181      0.1000E-01       62.50    
   4430      1     43    182      0.1000E-01       62.50    
   4431      1     43    183      0.1000E-01       62.50    
   4432      1     43    184      0.1000E-01       62.50    
   4433      1     43    185      0.1000E-01       62.50    
   4434      1     43    186      0.1000E-01       62.50    
   4435      1     43    187      0.1000E-01       62.50    
   4436      1     43    188      0.1000E-01       62.50    
   4437      1     43    189      0.1000E-01       62.50    
   4438      1     43    190      0.1000E-01       62.50    
   4439      1     43    191      0.1000E-01       62.50    
   4440      1     43    192      0.1000E-01       62.50    
   4441      1     43    193      0.1000E-01       62.50    
   4442      1     43    194      0.1000E-01       62.50    
   4443      1     43    195      0.1000E-01       62.50    
   4444      1     43    196      0.1000E-01       62.50    
   4445      1     43    197      0.1000E-01       62.50    
   4446      1     43    198      0.1000E-01       62.50    
   4447      1     43    199      0.1000E-01       62.50    
   4448      1     44      2      0.1000E-01       62.50    
   4449      1     44      3      0.1000E-01       62.50    
   4450      1     44      4      0.1000E-01       62.50    
   4451      1     44      5      0.1000E-01       62.50    
   4452      1     44      6      0.1000E-01       62.50    
   4453      1     44      7      0.1000E-01       62.50    
   4454      1     44      8      0.1000E-01       62.50    
   4455      1     44      9      0.1000E-01       62.50    
   4456      1     44     10      0.1000E-01       62.50    
   4457      1     44     11      0.1000E-01       62.50    
   4458      1     44     12      0.1000E-01       62.50    
   4459      1     44     13      0.1000E-01       62.50    
   4460      1     44     14      0.1000E-01       62.50    
   4461      1     44     15      0.1000E-01       62.50    
   4462      1     44     16      0.1000E-01       62.50    
   4463      1     44     17      0.1000E-01       62.50    
   4464      1     44     18      0.1000E-01       62.50    
   4465      1     44     19      0.1000E-01       62.50    
   4466      1     44     20      0.1000E-01       62.50    
   4467      1     44     21      0.1000E-01       62.50    
   4468      1     44     22      0.1000E-01       62.50    
   4469      1     44     23      0.1000E-01       62.50    
   4470      1     44     24      0.1000E-01       62.50    
   4471      1     44     25      0.1000E-01       62.50    
   4472      1     44     26      0.1000E-01       62.50    
   4473      1     44     27      0.1000E-01       62.50    
   4474      1     44     28      0.1000E-01       62.50    
   4475      1     44     29      0.1000E-01       62.50    
   4476      1     44     30      0.1000E-01       62.50    
   4477      1     44     31      0.1000E-01       62.50    
   4478      1     44     68      0.1000E-01       62.50    
   4479      1     44    117      0.1000E-01       62.50    
   4480      1     44    118      0.1000E-01       62.50    
   4481      1     44    119      0.1000E-01       62.50    
   4482      1     44    120      0.1000E-01       62.50    
   4483      1     44    121      0.1000E-01       62.50    
   4484      1     44    122      0.1000E-01       62.50    
   4485      1     44    123      0.1000E-01       62.50    
   4486      1     44    124      0.1000E-01       62.50    
   4487      1     44    125      0.1000E-01       62.50    
   4488      1     44    126      0.1000E-01       62.50    
   4489      1     44    127      0.1000E-01       62.50    
   4490      1     44    128      0.1000E-01       62.50    
   4491      1     44    129      0.1000E-01       62.50    
   4492      1     44    130      0.1000E-01       62.50    
   4493      1     44    131      0.1000E-01       62.50    
   4494      1     44    132      0.1000E-01       62.50    
   4495      1     44    133      0.1000E-01       62.50    
   4496      1     44    134      0.1000E-01       62.50    
   4497      1     44    135      0.1000E-01       62.50    
   4498      1     44    136      0.1000E-01       62.50    
   4499      1     44    137      0.1000E-01       62.50    
   4500      1     44    138      0.1000E-01       62.50    
   4501      1     44    139      0.1000E-01       62.50    
   4502      1     44    140      0.1000E-01       62.50    
   4503      1     44    141      0.1000E-01       62.50    
   4504      1     44    142      0.1000E-01       62.50    
   4505      1     44    143      0.1000E-01       62.50    
   4506      1     44    144      0.1000E-01       62.50    
   4507      1     44    145      0.1000E-01       62.50    
   4508      1     44    146      0.1000E-01       62.50    
   4509      1     44    147      0.1000E-01       62.50    
   4510      1     44    148      0.1000E-01       62.50    
   4511      1     44    149      0.1000E-01       62.50    
   4512      1     44    150      0.1000E-01       62.50    
   4513      1     44    151      0.1000E-01       62.50    
   4514      1     44    152      0.1000E-01       62.50    
   4515      1     44    153      0.1000E-01       62.50    
   4516      1     44    154      0.1000E-01       62.50    
   4517      1     44    155      0.1000E-01       62.50    
   4518      1     44    156      0.1000E-01       62.50    
   4519      1     44    157      0.1000E-01       62.50    
   4520      1     44    158      0.1000E-01       62.50    
   4521      1     44    159      0.1000E-01       62.50    
   4522      1     44    160      0.1000E-01       62.50    
   4523      1     44    161      0.1000E-01       62.50    
   4524      1     44    162      0.1000E-01       62.50    
   4525      1     44    163      0.1000E-01       62.50    
   4526      1     44    164      0.1000E-01       62.50    
   4527      1     44    165      0.1000E-01       62.50    
   4528      1     44    166      0.1000E-01       62.50    
   4529      1     44    167      0.1000E-01       62.50    
   4530      1     44    168      0.1000E-01       62.50    
   4531      1     44    169      0.1000E-01       62.50    
   4532      1     44    170      0.1000E-01       62.50    
   4533      1     44    171      0.1000E-01       62.50    
   4534      1     44    172      0.1000E-01       62.50    
   4535      1     44    173      0.1000E-01       62.50    
   4536      1     44    174      0.1000E-01       62.50    
   4537      1     44    175      0.1000E-01       62.50    
   4538      1     44    176      0.1000E-01       62.50    
   4539      1     44    177      0.1000E-01       62.50    
   4540      1     44    178      0.1000E-01       62.50    
   4541      1     44    179      0.1000E-01       62.50    
   4542      1     44    180      0.1000E-01       62.50    
   4543      1     44    181      0.1000E-01       62.50    
   4544      1     44    182      0.1000E-01       62.50    
   4545      1     44    183      0.1000E-01       62.50    
   4546      1     44    184      0.1000E-01       62.50    
   4547      1     44    185      0.1000E-01       62.50    
   4548      1     44    186      0.1000E-01       62.50    
   4549      1     44    187      0.1000E-01       62.50    
   4550      1     44    188      0.1000E-01       62.50    
   4551      1     44    189      0.1000E-01       62.50    
   4552      1     44    190      0.1000E-01       62.50    
   4553      1     44    191      0.1000E-01       62.50    
   4554      1     44    192      0.1000E-01       62.50    
   4555      1     44    193      0.1000E-01       62.50    
   4556      1     44    194      0.1000E-01       62.50    
   4557      1     44    195      0.1000E-01       62.50    
   4558      1     44    196      0.1000E-01       62.50    
   4559      1     44    197      0.1000E-01       62.50    
   4560      1     44    198      0.1000E-01       62.50    
   4561      1     45      2      0.1000E-01       62.50    
   4562      1     45      3      0.1000E-01       62.50    
   4563      1     45      4      0.1000E-01       62.50    
   4564      1     45      5      0.1000E-01       62.50    
   4565      1     45      6      0.1000E-01       62.50    
   4566      1     45      7      0.1000E-01       62.50    
   4567      1     45      8      0.1000E-01       62.50    
   4568      1     45      9      0.1000E-01       62.50    
   4569      1     45     10      0.1000E-01       62.50    
   4570      1     45     11      0.1000E-01       62.50    
   4571      1     45     12      0.1000E-01       62.50    
   4572      1     45     13      0.1000E-01       62.50    
   4573      1     45     14      0.1000E-01       62.50    
   4574      1     45     15      0.1000E-01       62.50    
   4575      1     45     16      0.1000E-01       62.50    
   4576      1     45     17      0.1000E-01       62.50    
   4577      1     45     18      0.1000E-01       62.50    
   4578      1     45     19      0.1000E-01       62.50    
   4579      1     45     20      0.1000E-01       62.50    
   4580      1     45     21      0.1000E-01       62.50    
   4581      1     45     22      0.1000E-01       62.50    
   4582      1     45     23      0.1000E-01       62.50    
   4583      1     45     24      0.1000E-01       62.50    
   4584      1     45     25      0.1000E-01       62.50    
   4585      1     45     26      0.1000E-01       62.50    
   4586      1     45     27      0.1000E-01       62.50    
   4587      1     45     28      0.1000E-01       62.50    
   4588      1     45     29      0.1000E-01       62.50    
   4589      1     45     30      0.1000E-01       62.50    
   4590      1     45     31      0.1000E-01       62.50    
   4591      1     45    116      0.1000E-01       62.50    
   4592      1     45    117      0.1000E-01       62.50    
   4593      1     45    118      0.1000E-01       62.50    
   4594      1     45    119      0.1000E-01       62.50    
   4595      1     45    120      0.1000E-01       62.50    
   4596      1     45    121      0.1000E-01       62.50    
   4597      1     45    122      0.1000E-01       62.50    
   4598      1     45    123      0.1000E-01       62.50    
   4599      1     45    124      0.1000E-01       62.50    
   4600      1     45    125      0.1000E-01       62.50    
   4601      1     45    126      0.1000E-01       62.50    
   4602      1     45    127      0.1000E-01       62.50    
   4603      1     45    128      0.1000E-01       62.50    
   4604      1     45    129      0.1000E-01       62.50    
   4605      1     45    130      0.1000E-01       62.50    
   4606      1     45    131      0.1000E-01       62.50    
   4607      1     45    132      0.1000E-01       62.50    
   4608      1     45    133      0.1000E-01       62.50    
   4609      1     45    134      0.1000E-01       62.50    
   4610      1     45    135      0.1000E-01       62.50    
   4611      1     45    136      0.1000E-01       62.50    
   4612      1     45    137      0.1000E-01       62.50    
   4613      1     45    138      0.1000E-01       62.50    
   4614      1     45    139      0.1000E-01       62.50    
   4615      1     45    140      0.1000E-01       62.50    
   4616      1     45    141      0.1000E-01       62.50    
   4617      1     45    142      0.1000E-01       62.50    
   4618      1     45    143      0.1000E-01       62.50    
   4619      1     45    144      0.1000E-01       62.50    
   4620      1     45    145      0.1000E-01       62.50    
   4621      1     45    146      0.1000E-01       62.50    
   4622      1     45    147      0.1000E-01       62.50    
   4623      1     45    148      0.1000E-01       62.50    
   4624      1     45    149      0.1000E-01       62.50    
   4625      1     45    150      0.1000E-01       62.50    
   4626      1     45    151      0.1000E-01       62.50    
   4627      1     45    152      0.1000E-01       62.50    
   4628      1     45    153      0.1000E-01       62.50    
   4629      1     45    154      0.1000E-01       62.50    
   4630      1     45    155      0.1000E-01       62.50    
   4631      1     45    156      0.1000E-01       62.50    
   4632      1     45    157      0.1000E-01       62.50    
   4633      1     45    158      0.1000E-01       62.50    
   4634      1     45    159      0.1000E-01       62.50    
   4635      1     45    160      0.1000E-01       62.50    
   4636      1     45    161      0.1000E-01       62.50    
   4637      1     45    162      0.1000E-01       62.50    
   4638      1     45    163      0.1000E-01       62.50    
   4639      1     45    164      0.1000E-01       62.50    
   4640      1     45    165      0.1000E-01       62.50    
   4641      1     45    166      0.1000E-01       62.50    
   4642      1     45    167      0.1000E-01       62.50    
   4643      1     45    168      0.1000E-01       62.50    
   4644      1     45    169      0.1000E-01       62.50    
   4645      1     45    170      0.1000E-01       62.50    
   4646      1     45    171      0.1000E-01       62.50    
   4647      1     45    172      0.1000E-01       62.50    
   4648      1     45    173      0.1000E-01       62.50    
   4649      1     45    174      0.1000E-01       62.50    
   4650      1     45    175      0.1000E-01       62.50    
   4651      1     45    176      0.1000E-01       62.50    
   4652      1     45    177      0.1000E-01       62.50    
   4653      1     45    178      0.1000E-01       62.50    
   4654      1     45    179      0.1000E-01       62.50    
   4655      1     45    180      0.1000E-01       62.50    
   4656      1     45    181      0.1000E-01       62.50    
   4657      1     45    182      0.1000E-01       62.50    
   4658      1     45    183      0.1000E-01       62.50    
   4659      1     45    184      0.1000E-01       62.50    
   4660      1     45    185      0.1000E-01       62.50    
   4661      1     45    186      0.1000E-01       62.50    
   4662      1     45    187      0.1000E-01       62.50    
   4663      1     45    188      0.1000E-01       62.50    
   4664      1     45    189      0.1000E-01       62.50    
   4665      1     45    190      0.1000E-01       62.50    
   4666      1     45    191      0.1000E-01       62.50    
   4667      1     45    192      0.1000E-01       62.50    
   4668      1     45    193      0.1000E-01       62.50    
   4669      1     45    194      0.1000E-01       62.50    
   4670      1     45    195      0.1000E-01       62.50    
   4671      1     45    196      0.1000E-01       62.50    
   4672      1     45    197      0.1000E-01       62.50    
   4673      1     46      2      0.1000E-01       62.50    
   4674      1     46      3      0.1000E-01       62.50    
   4675      1     46      4      0.1000E-01       62.50    
   4676      1     46      5      0.1000E-01       62.50    
   4677      1     46      6      0.1000E-01       62.50    
   4678      1     46      7      0.1000E-01       62.50    
   4679      1     46      8      0.1000E-01       62.50    
   4680      1     46      9      0.1000E-01       62.50    
   4681      1     46     10      0.1000E-01       62.50    
   4682      1     46     11      0.1000E-01       62.50    
   4683      1     46     12      0.1000E-01       62.50    
   4684      1     46     13      0.1000E-01       62.50    
   4685      1     46     14      0.1000E-01       62.50    
   4686      1     46     15      0.1000E-01       62.50    
   4687      1     46     16      0.1000E-01       62.50    
   4688      1     46     17      0.1000E-01       62.50    
   4689      1     46     18      0.1000E-01       62.50    
   4690      1     46     19      0.1000E-01       62.50    
   4691      1     46     20      0.1000E-01       62.50    
   4692      1     46     21      0.1000E-01       62.50    
   4693      1     46     22      0.1000E-01       62.50    
   4694      1     46     23      0.1000E-01       62.50    
   4695      1     46     24      0.1000E-01       62.50    
   4696      1     46     25      0.1000E-01       62.50    
   4697      1     46     26      0.1000E-01       62.50    
   4698      1     46     27      0.1000E-01       62.50    
   4699      1     46     28      0.1000E-01       62.50    
   4700      1     46     29      0.1000E-01       62.50    
   4701      1     46     30      0.1000E-01       62.50    
   4702      1     46    113      0.1000E-01       62.50    
   4703      1     46    116      0.1000E-01       62.50    
   4704      1     46    117      0.1000E-01       62.50    
   4705      1     46    118      0.1000E-01       62.50    
   4706      1     46    119      0.1000E-01       62.50    
   4707      1     46    120      0.1000E-01       62.50    
   4708      1     46    121      0.1000E-01       62.50    
   4709      1     46    122      0.1000E-01       62.50    
   4710      1     46    123      0.1000E-01       62.50    
   4711      1     46    124      0.1000E-01       62.50    
   4712      1     46    125      0.1000E-01       62.50    
   4713      1     46    126      0.1000E-01       62.50    
   4714      1     46    127      0.1000E-01       62.50    
   4715      1     46    128      0.1000E-01       62.50    
   4716      1     46    129      0.1000E-01       62.50    
   4717      1     46    130      0.1000E-01       62.50    
   4718      1     46    131      0.1000E-01       62.50    
   4719      1     46    132      0.1000E-01       62.50    
   4720      1     46    133      0.1000E-01       62.50    
   4721      1     46    134      0.1000E-01       62.50    
   4722      1     46    135      0.1000E-01       62.50    
   4723      1     46    136      0.1000E-01       62.50    
   4724      1     46    137      0.1000E-01       62.50    
   4725      1     46    138      0.1000E-01       62.50    
   4726      1     46    139      0.1000E-01       62.50    
   4727      1     46    140      0.1000E-01       62.50    
   4728      1     46    141      0.1000E-01       62.50    
   4729      1     46    142      0.1000E-01       62.50    
   4730      1     46    143      0.1000E-01       62.50    
   4731      1     46    144      0.1000E-01       62.50    
   4732      1     46    145      0.1000E-01       62.50    
   4733      1     46    146      0.1000E-01       62.50    
   4734      1     46    147      0.1000E-01       62.50    
   4735      1     46    148      0.1000E-01       62.50    
   4736      1     46    149      0.1000E-01       62.50    
   4737      1     46    150      0.1000E-01       62.50    
   4738      1     46    151      0.1000E-01       62.50    
   4739      1     46    152      0.1000E-01       62.50    
   4740      1     46    153      0.1000E-01       62.50    
   4741      1     46    154      0.1000E-01       62.50    
   4742      1     46    155      0.1000E-01       62.50    
   4743      1     46    156      0.1000E-01       62.50    
   4744      1     46    157      0.1000E-01       62.50    
   4745      1     46    158      0.1000E-01       62.50    
   4746      1     46    159      0.1000E-01       62.50    
   4747      1     46    160      0.1000E-01       62.50    
   4748      1     46    161      0.1000E-01       62.50    
   4749      1     46    162      0.1000E-01       62.50    
   4750      1     46    163      0.1000E-01       62.50    
   4751      1     46    164      0.1000E-01       62.50    
   4752      1     46    165      0.1000E-01       62.50    
   4753      1     46    166      0.1000E-01       62.50    
   4754      1     46    167      0.1000E-01       62.50    
   4755      1     46    168      0.1000E-01       62.50    
   4756      1     46    169      0.1000E-01       62.50    
   4757      1     46    170      0.1000E-01       62.50    
   4758      1     46    171      0.1000E-01       62.50    
   4759      1     46    172      0.1000E-01       62.50    
   4760      1     46    173      0.1000E-01       62.50    
   4761      1     46    174      0.1000E-01       62.50    
   4762      1     46    175      0.1000E-01       62.50    
   4763      1     46    176      0.1000E-01       62.50    
   4764      1     46    177      0.1000E-01       62.50    
   4765      1     46    178      0.1000E-01       62.50    
   4766      1     46    179      0.1000E-01       62.50    
   4767      1     46    180      0.1000E-01       62.50    
   4768      1     46    181      0.1000E-01       62.50    
   4769      1     46    182      0.1000E-01       62.50    
   4770      1     46    183      0.1000E-01       62.50    
   4771      1     46    184      0.1000E-01       62.50    
   4772      1     46    185      0.1000E-01       62.50    
   4773      1     46    186      0.1000E-01       62.50    
   4774      1     46    187      0.1000E-01       62.50    
   4775      1     46    188      0.1000E-01       62.50    
   4776      1     46    189      0.1000E-01       62.50    
   4777      1     46    190      0.1000E-01       62.50    
   4778      1     46    191      0.1000E-01       62.50    
   4779      1     46    192      0.1000E-01       62.50    
   4780      1     46    193      0.1000E-01       62.50    
   4781      1     46    194      0.1000E-01       62.50    
   4782      1     46    195      0.1000E-01       62.50    
   4783      1     46    196      0.1000E-01       62.50    
   4784      1     47      2      0.1000E-01       62.50    
   4785      1     47      3      0.1000E-01       62.50    
   4786      1     47      4      0.1000E-01       62.50    
   4787      1     47      5      0.1000E-01       62.50    
   4788      1     47      6      0.1000E-01       62.50    
   4789      1     47      7      0.1000E-01       62.50    
   4790      1     47      8      0.1000E-01       62.50    
   4791      1     47      9      0.1000E-01       62.50    
   4792      1     47     10      0.1000E-01       62.50    
   4793      1     47     11      0.1000E-01       62.50    
   4794      1     47     12      0.1000E-01       62.50    
   4795      1     47     13      0.1000E-01       62.50    
   4796      1     47     14      0.1000E-01       62.50    
   4797      1     47     15      0.1000E-01       62.50    
   4798      1     47     16      0.1000E-01       62.50    
   4799      1     47     17      0.1000E-01       62.50    
   4800      1     47     18      0.1000E-01       62.50    
   4801      1     47     19      0.1000E-01       62.50    
   4802      1     47     20      0.1000E-01       62.50    
   4803      1     47     21      0.1000E-01       62.50    
   4804      1     47     22      0.1000E-01       62.50    
   4805      1     47     23      0.1000E-01       62.50    
   4806      1     47     24      0.1000E-01       62.50    
   4807      1     47     26      0.1000E-01       62.50    
   4808      1     47     27      0.1000E-01       62.50    
   4809      1     47     28      0.1000E-01       62.50    
   4810      1     47    112      0.1000E-01       62.50    
   4811      1     47    113      0.1000E-01       62.50    
   4812      1     47    114      0.1000E-01       62.50    
   4813      1     47    115      0.1000E-01       62.50    
   4814      1     47    116      0.1000E-01       62.50    
   4815      1     47    117      0.1000E-01       62.50    
   4816      1     47    118      0.1000E-01       62.50    
   4817      1     47    119      0.1000E-01       62.50    
   4818      1     47    120      0.1000E-01       62.50    
   4819      1     47    121      0.1000E-01       62.50    
   4820      1     47    122      0.1000E-01       62.50    
   4821      1     47    123      0.1000E-01       62.50    
   4822      1     47    124      0.1000E-01       62.50    
   4823      1     47    125      0.1000E-01       62.50    
   4824      1     47    126      0.1000E-01       62.50    
   4825      1     47    127      0.1000E-01       62.50    
   4826      1     47    128      0.1000E-01       62.50    
   4827      1     47    129      0.1000E-01       62.50    
   4828      1     47    130      0.1000E-01       62.50    
   4829      1     47    131      0.1000E-01       62.50    
   4830      1     47    132      0.1000E-01       62.50    
   4831      1     47    133      0.1000E-01       62.50    
   4832      1     47    134      0.1000E-01       62.50    
   4833      1     47    135      0.1000E-01       62.50    
   4834      1     47    136      0.1000E-01       62.50    
   4835      1     47    137      0.1000E-01       62.50    
   4836      1     47    138      0.1000E-01       62.50    
   4837      1     47    139      0.1000E-01       62.50    
   4838      1     47    140      0.1000E-01       62.50    
   4839      1     47    141      0.1000E-01       62.50    
   4840      1     47    142      0.1000E-01       62.50    
   4841      1     47    143      0.1000E-01       62.50    
   4842      1     47    144      0.1000E-01       62.50    
   4843      1     47    145      0.1000E-01       62.50    
   4844      1     47    146      0.1000E-01       62.50    
   4845      1     47    147      0.1000E-01       62.50    
   4846      1     47    148      0.1000E-01       62.50    
   4847      1     47    149      0.1000E-01       62.50    
   4848      1     47    150      0.1000E-01       62.50    
   4849      1     47    151      0.1000E-01       62.50    
   4850      1     47    152      0.1000E-01       62.50    
   4851      1     47    153      0.1000E-01       62.50    
   4852      1     47    154      0.1000E-01       62.50    
   4853      1     47    155      0.1000E-01       62.50    
   4854      1     47    156      0.1000E-01       62.50    
   4855      1     47    157      0.1000E-01       62.50    
   4856      1     47    158      0.1000E-01       62.50    
   4857      1     47    159      0.1000E-01       62.50    
   4858      1     47    160      0.1000E-01       62.50    
   4859      1     47    161      0.1000E-01       62.50    
   4860      1     47    162      0.1000E-01       62.50    
   4861      1     47    163      0.1000E-01       62.50    
   4862      1     47    164      0.1000E-01       62.50    
   4863      1     47    165      0.1000E-01       62.50    
   4864      1     47    166      0.1000E-01       62.50    
   4865      1     47    167      0.1000E-01       62.50    
   4866      1     47    168      0.1000E-01       62.50    
   4867      1     47    169      0.1000E-01       62.50    
   4868      1     47    170      0.1000E-01       62.50    
   4869      1     47    171      0.1000E-01       62.50    
   4870      1     47    172      0.1000E-01       62.50    
   4871      1     47    173      0.1000E-01       62.50    
   4872      1     47    174      0.1000E-01       62.50    
   4873      1     47    175      0.1000E-01       62.50    
   4874      1     47    176      0.1000E-01       62.50    
   4875      1     47    177      0.1000E-01       62.50    
   4876      1     47    178      0.1000E-01       62.50    
   4877      1     47    179      0.1000E-01       62.50    
   4878      1     47    180      0.1000E-01       62.50    
   4879      1     47    181      0.1000E-01       62.50    
   4880      1     47    182      0.1000E-01       62.50    
   4881      1     47    183      0.1000E-01       62.50    
   4882      1     47    184      0.1000E-01       62.50    
   4883      1     47    185      0.1000E-01       62.50    
   4884      1     47    186      0.1000E-01       62.50    
   4885      1     47    187      0.1000E-01       62.50    
   4886      1     47    188      0.1000E-01       62.50    
   4887      1     47    189      0.1000E-01       62.50    
   4888      1     47    190      0.1000E-01       62.50    
   4889      1     47    191      0.1000E-01       62.50    
   4890      1     47    192      0.1000E-01       62.50    
   4891      1     47    193      0.1000E-01       62.50    
   4892      1     47    194      0.1000E-01       62.50    
   4893      1     48      2      0.1000E-01       62.50    
   4894      1     48      3      0.1000E-01       62.50    
   4895      1     48      4      0.1000E-01       62.50    
   4896      1     48      5      0.1000E-01       62.50    
   4897      1     48      6      0.1000E-01       62.50    
   4898      1     48      7      0.1000E-01       62.50    
   4899      1     48      8      0.1000E-01       62.50    
   4900      1     48      9      0.1000E-01       62.50    
   4901      1     48     10      0.1000E-01       62.50    
   4902      1     48     11      0.1000E-01       62.50    
   4903      1     48     12      0.1000E-01       62.50    
   4904      1     48     13      0.1000E-01       62.50    
   4905      1     48     14      0.1000E-01       62.50    
   4906      1     48     15      0.1000E-01       62.50    
   4907      1     48     16      0.1000E-01       62.50    
   4908      1     48     17      0.1000E-01       62.50    
   4909      1     48     18      0.1000E-01       62.50    
   4910      1     48     19      0.1000E-01       62.50    
   4911      1     48     20      0.1000E-01       62.50    
   4912      1     48     21      0.1000E-01       62.50    
   4913      1     48     22      0.1000E-01       62.50    
   4914      1     48     23      0.1000E-01       62.50    
   4915      1     48     26      0.1000E-01       62.50    
   4916      1     48     27      0.1000E-01       62.50    
   4917      1     48    109      0.1000E-01       62.50    
   4918      1     48    110      0.1000E-01       62.50    
   4919      1     48    111      0.1000E-01       62.50    
   4920      1     48    112      0.1000E-01       62.50    
   4921      1     48    113      0.1000E-01       62.50    
   4922      1     48    114      0.1000E-01       62.50    
   4923      1     48    115      0.1000E-01       62.50    
   4924      1     48    116      0.1000E-01       62.50    
   4925      1     48    117      0.1000E-01       62.50    
   4926      1     48    118      0.1000E-01       62.50    
   4927      1     48    119      0.1000E-01       62.50    
   4928      1     48    120      0.1000E-01       62.50    
   4929      1     48    121      0.1000E-01       62.50    
   4930      1     48    122      0.1000E-01       62.50    
   4931      1     48    123      0.1000E-01       62.50    
   4932      1     48    124      0.1000E-01       62.50    
   4933      1     48    125      0.1000E-01       62.50    
   4934      1     48    126      0.1000E-01       62.50    
   4935      1     48    127      0.1000E-01       62.50    
   4936      1     48    128      0.1000E-01       62.50    
   4937      1     48    129      0.1000E-01       62.50    
   4938      1     48    130      0.1000E-01       62.50    
   4939      1     48    131      0.1000E-01       62.50    
   4940      1     48    132      0.1000E-01       62.50    
   4941      1     48    133      0.1000E-01       62.50    
   4942      1     48    134      0.1000E-01       62.50    
   4943      1     48    135      0.1000E-01       62.50    
   4944      1     48    136      0.1000E-01       62.50    
   4945      1     48    137      0.1000E-01       62.50    
   4946      1     48    138      0.1000E-01       62.50    
   4947      1     48    139      0.1000E-01       62.50    
   4948      1     48    140      0.1000E-01       62.50    
   4949      1     48    141      0.1000E-01       62.50    
   4950      1     48    142      0.1000E-01       62.50    
   4951      1     48    143      0.1000E-01       62.50    
   4952      1     48    144      0.1000E-01       62.50    
   4953      1     48    145      0.1000E-01       62.50    
   4954      1     48    146      0.1000E-01       62.50    
   4955      1     48    147      0.1000E-01       62.50    
   4956      1     48    148      0.1000E-01       62.50    
   4957      1     48    149      0.1000E-01       62.50    
   4958      1     48    150      0.1000E-01       62.50    
   4959      1     48    151      0.1000E-01       62.50    
   4960      1     48    152      0.1000E-01       62.50    
   4961      1     48    153      0.1000E-01       62.50    
   4962      1     48    154      0.1000E-01       62.50    
   4963      1     48    155      0.1000E-01       62.50    
   4964      1     48    156      0.1000E-01       62.50    
   4965      1     48    157      0.1000E-01       62.50    
   4966      1     48    158      0.1000E-01       62.50    
   4967      1     48    159      0.1000E-01       62.50    
   4968      1     48    160      0.1000E-01       62.50    
   4969      1     48    161      0.1000E-01       62.50    
   4970      1     48    162      0.1000E-01       62.50    
   4971      1     48    163      0.1000E-01       62.50    
   4972      1     48    164      0.1000E-01       62.50    
   4973      1     48    165      0.1000E-01       62.50    
   4974      1     48    166      0.1000E-01       62.50    
   4975      1     48    167      0.1000E-01       62.50    
   4976      1     48    168      0.1000E-01       62.50    
   4977      1     48    169      0.1000E-01       62.50    
   4978      1     48    170      0.1000E-01       62.50    
   4979      1     48    171      0.1000E-01       62.50    
   4980      1     48    172      0.1000E-01       62.50    
   4981      1     48    173      0.1000E-01       62.50    
   4982      1     48    174      0.1000E-01       62.50    
   4983      1     48    175      0.1000E-01       62.50    
   4984      1     48    176      0.1000E-01       62.50    
   4985      1     48    177      0.1000E-01       62.50    
   4986      1     48    178      0.1000E-01       62.50    
   4987      1     48    179      0.1000E-01       62.50    
   4988      1     48    180      0.1000E-01       62.50    
   4989      1     48    181      0.1000E-01       62.50    
   4990      1     48    182      0.1000E-01       62.50    
   4991      1     48    183      0.1000E-01       62.50    
   4992      1     48    184      0.1000E-01       62.50    
   4993      1     48    185      0.1000E-01       62.50    
   4994      1     48    186      0.1000E-01       62.50    
   4995      1     48    187      0.1000E-01       62.50    
   4996      1     48    188      0.1000E-01       62.50    
   4997      1     48    189      0.1000E-01       62.50    
   4998      1     48    190      0.1000E-01       62.50    
   4999      1     48    191      0.1000E-01       62.50    
   5000      1     48    192      0.1000E-01       62.50    
   5001      1     48    193      0.1000E-01       62.50    
   5002      1     49      2      0.1000E-01       62.50    
   5003      1     49      3      0.1000E-01       62.50    
   5004      1     49      4      0.1000E-01       62.50    
   5005      1     49      5      0.1000E-01       62.50    
   5006      1     49      6      0.1000E-01       62.50    
   5007      1     49      7      0.1000E-01       62.50    
   5008      1     49      8      0.1000E-01       62.50    
   5009      1     49      9      0.1000E-01       62.50    
   5010      1     49     10      0.1000E-01       62.50    
   5011      1     49     11      0.1000E-01       62.50    
   5012      1     49     12      0.1000E-01       62.50    
   5013      1     49     13      0.1000E-01       62.50    
   5014      1     49     14      0.1000E-01       62.50    
   5015      1     49     15      0.1000E-01       62.50    
   5016      1     49     16      0.1000E-01       62.50    
   5017      1     49     17      0.1000E-01       62.50    
   5018      1     49     18      0.1000E-01       62.50    
   5019      1     49     19      0.1000E-01       62.50    
   5020      1     49     20      0.1000E-01       62.50    
   5021      1     49     21      0.1000E-01       62.50    
   5022      1     49     22      0.1000E-01       62.50    
   5023      1     49     27      0.1000E-01       62.50    
   5024      1     49    109      0.1000E-01       62.50    
   5025      1     49    110      0.1000E-01       62.50    
   5026      1     49    111      0.1000E-01       62.50    
   5027      1     49    112      0.1000E-01       62.50    
   5028      1     49    113      0.1000E-01       62.50    
   5029      1     49    114      0.1000E-01       62.50    
   5030      1     49    115      0.1000E-01       62.50    
   5031      1     49    116      0.1000E-01       62.50    
   5032      1     49    117      0.1000E-01       62.50    
   5033      1     49    118      0.1000E-01       62.50    
   5034      1     49    119      0.1000E-01       62.50    
   5035      1     49    120      0.1000E-01       62.50    
   5036      1     49    121      0.1000E-01       62.50    
   5037      1     49    122      0.1000E-01       62.50    
   5038      1     49    123      0.1000E-01       62.50    
   5039      1     49    124      0.1000E-01       62.50    
   5040      1     49    125      0.1000E-01       62.50    
   5041      1     49    126      0.1000E-01       62.50    
   5042      1     49    127      0.1000E-01       62.50    
   5043      1     49    128      0.1000E-01       62.50    
   5044      1     49    129      0.1000E-01       62.50    
   5045      1     49    130      0.1000E-01       62.50    
   5046      1     49    131      0.1000E-01       62.50    
   5047      1     49    132      0.1000E-01       62.50    
   5048      1     49    133      0.1000E-01       62.50    
   5049      1     49    134      0.1000E-01       62.50    
   5050      1     49    135      0.1000E-01       62.50    
   5051      1     49    136      0.1000E-01       62.50    
   5052      1     49    137      0.1000E-01       62.50    
   5053      1     49    138      0.1000E-01       62.50    
   5054      1     49    139      0.1000E-01       62.50    
   5055      1     49    140      0.1000E-01       62.50    
   5056      1     49    141      0.1000E-01       62.50    
   5057      1     49    142      0.1000E-01       62.50    
   5058      1     49    143      0.1000E-01       62.50    
   5059      1     49    144      0.1000E-01       62.50    
   5060      1     49    145      0.1000E-01       62.50    
   5061      1     49    146      0.1000E-01       62.50    
   5062      1     49    147      0.1000E-01       62.50    
   5063      1     49    148      0.1000E-01       62.50    
   5064      1     49    149      0.1000E-01       62.50    
   5065      1     49    150      0.1000E-01       62.50    
   5066      1     49    151      0.1000E-01       62.50    
   5067      1     49    152      0.1000E-01       62.50    
   5068      1     49    153      0.1000E-01       62.50    
   5069      1     49    154      0.1000E-01       62.50    
   5070      1     49    155      0.1000E-01       62.50    
   5071      1     49    156      0.1000E-01       62.50    
   5072      1     49    157      0.1000E-01       62.50    
   5073      1     49    158      0.1000E-01       62.50    
   5074      1     49    159      0.1000E-01       62.50    
   5075      1     49    160      0.1000E-01       62.50    
   5076      1     49    161      0.1000E-01       62.50    
   5077      1     49    162      0.1000E-01       62.50    
   5078      1     49    163      0.1000E-01       62.50    
   5079      1     49    164      0.1000E-01       62.50    
   5080      1     49    165      0.1000E-01       62.50    
   5081      1     49    166      0.1000E-01       62.50    
   5082      1     49    167      0.1000E-01       62.50    
   5083      1     49    168      0.1000E-01       62.50    
   5084      1     49    169      0.1000E-01       62.50    
   5085      1     49    170      0.1000E-01       62.50    
   5086      1     49    171      0.1000E-01       62.50    
   5087      1     49    172      0.1000E-01       62.50    
   5088      1     49    173      0.1000E-01       62.50    
   5089      1     49    174      0.1000E-01       62.50    
   5090      1     49    175      0.1000E-01       62.50    
   5091      1     49    176      0.1000E-01       62.50    
   5092      1     49    177      0.1000E-01       62.50    
   5093      1     49    178      0.1000E-01       62.50    
   5094      1     49    179      0.1000E-01       62.50    
   5095      1     49    180      0.1000E-01       62.50    
   5096      1     49    181      0.1000E-01       62.50    
   5097      1     49    182      0.1000E-01       62.50    
   5098      1     49    183      0.1000E-01       62.50    
   5099      1     49    184      0.1000E-01       62.50    
   5100      1     49    185      0.1000E-01       62.50    
   5101      1     49    186      0.1000E-01       62.50    
   5102      1     49    187      0.1000E-01       62.50    
   5103      1     49    188      0.1000E-01       62.50    
   5104      1     49    189      0.1000E-01       62.50    
   5105      1     49    190      0.1000E-01       62.50    
   5106      1     49    191      0.1000E-01       62.50    
   5107      1     49    192      0.1000E-01       62.50    
   5108      1     50      2      0.1000E-01       62.50    
   5109      1     50      3      0.1000E-01       62.50    
   5110      1     50      4      0.1000E-01       62.50    
   5111      1     50      5      0.1000E-01       62.50    
   5112      1     50      6      0.1000E-01       62.50    
   5113      1     50      7      0.1000E-01       62.50    
   5114      1     50      8      0.1000E-01       62.50    
   5115      1     50      9      0.1000E-01       62.50    
   5116      1     50     10      0.1000E-01       62.50    
   5117      1     50     11      0.1000E-01       62.50    
   5118      1     50     12      0.1000E-01       62.50    
   5119      1     50     13      0.1000E-01       62.50    
   5120      1     50     14      0.1000E-01       62.50    
   5121      1     50     15      0.1000E-01       62.50    
   5122      1     50     16      0.1000E-01       62.50    
   5123      1     50     17      0.1000E-01       62.50    
   5124      1     50     18      0.1000E-01       62.50    
   5125      1     50     19      0.1000E-01       62.50    
   5126      1     50     20      0.1000E-01       62.50    
   5127      1     50     21      0.1000E-01       62.50    
   5128      1     50    109      0.1000E-01       62.50    
   5129      1     50    110      0.1000E-01       62.50    
   5130      1     50    111      0.1000E-01       62.50    
   5131      1     50    112      0.1000E-01       62.50    
   5132      1     50    113      0.1000E-01       62.50    
   5133      1     50    114      0.1000E-01       62.50    
   5134      1     50    115      0.1000E-01       62.50    
   5135      1     50    116      0.1000E-01       62.50    
   5136      1     50    117      0.1000E-01       62.50    
   5137      1     50    118      0.1000E-01       62.50    
   5138      1     50    119      0.1000E-01       62.50    
   5139      1     50    120      0.1000E-01       62.50    
   5140      1     50    121      0.1000E-01       62.50    
   5141      1     50    122      0.1000E-01       62.50    
   5142      1     50    123      0.1000E-01       62.50    
   5143      1     50    124      0.1000E-01       62.50    
   5144      1     50    125      0.1000E-01       62.50    
   5145      1     50    126      0.1000E-01       62.50    
   5146      1     50    127      0.1000E-01       62.50    
   5147      1     50    128      0.1000E-01       62.50    
   5148      1     50    129      0.1000E-01       62.50    
   5149      1     50    130      0.1000E-01       62.50    
   5150      1     50    131      0.1000E-01       62.50    
   5151      1     50    132      0.1000E-01       62.50    
   5152      1     50    133      0.1000E-01       62.50    
   5153      1     50    134      0.1000E-01       62.50    
   5154      1     50    135      0.1000E-01       62.50    
   5155      1     50    136      0.1000E-01       62.50    
   5156      1     50    137      0.1000E-01       62.50    
   5157      1     50    138      0.1000E-01       62.50    
   5158      1     50    139      0.1000E-01       62.50    
   5159      1     50    140      0.1000E-01       62.50    
   5160      1     50    141      0.1000E-01       62.50    
   5161      1     50    142      0.1000E-01       62.50    
   5162      1     50    143      0.1000E-01       62.50    
   5163      1     50    144      0.1000E-01       62.50    
   5164      1     50    145      0.1000E-01       62.50    
   5165      1     50    146      0.1000E-01       62.50    
   5166      1     50    147      0.1000E-01       62.50    
   5167      1     50    148      0.1000E-01       62.50    
   5168      1     50    149      0.1000E-01       62.50    
   5169      1     50    150      0.1000E-01       62.50    
   5170      1     50    151      0.1000E-01       62.50    
   5171      1     50    152      0.1000E-01       62.50    
   5172      1     50    153      0.1000E-01       62.50    
   5173      1     50    154      0.1000E-01       62.50    
   5174      1     50    155      0.1000E-01       62.50    
   5175      1     50    156      0.1000E-01       62.50    
   5176      1     50    157      0.1000E-01       62.50    
   5177      1     50    158      0.1000E-01       62.50    
   5178      1     50    159      0.1000E-01       62.50    
   5179      1     50    160      0.1000E-01       62.50    
   5180      1     50    161      0.1000E-01       62.50    
   5181      1     50    162      0.1000E-01       62.50    
   5182      1     50    163      0.1000E-01       62.50    
   5183      1     50    164      0.1000E-01       62.50    
   5184      1     50    165      0.1000E-01       62.50    
   5185      1     50    166      0.1000E-01       62.50    
   5186      1     50    167      0.1000E-01       62.50    
   5187      1     50    168      0.1000E-01       62.50    
   5188      1     50    169      0.1000E-01       62.50    
   5189      1     50    170      0.1000E-01       62.50    
   5190      1     50    171      0.1000E-01       62.50    
   5191      1     50    172      0.1000E-01       62.50    
   5192      1     50    173      0.1000E-01       62.50    
   5193      1     50    174      0.1000E-01       62.50    
   5194      1     50    175      0.1000E-01       62.50    
   5195      1     50    176      0.1000E-01       62.50    
   5196      1     50    177      0.1000E-01       62.50    
   5197      1     50    178      0.1000E-01       62.50    
   5198      1     50    179      0.1000E-01       62.50    
   5199      1     50    180      0.1000E-01       62.50    
   5200      1     50    181      0.1000E-01       62.50    
   5201      1     50    182      0.1000E-01       62.50    
   5202      1     50    183      0.1000E-01       62.50    
   5203      1     50    184      0.1000E-01       62.50    
   5204      1     50    185      0.1000E-01       62.50    
   5205      1     50    186      0.1000E-01       62.50    
   5206      1     50    187      0.1000E-01       62.50    
   5207      1     50    188      0.1000E-01       62.50    
   5208      1     50    189      0.1000E-01       62.50    
   5209      1     50    190      0.1000E-01       62.50    
   5210      1     51      2      0.1000E-01       62.50    
   5211      1     51      3      0.1000E-01       62.50    
   5212      1     51      4      0.1000E-01       62.50    
   5213      1     51      5      0.1000E-01       62.50    
   5214      1     51      6      0.1000E-01       62.50    
   5215      1     51      7      0.1000E-01       62.50    
   5216      1     51      8      0.1000E-01       62.50    
   5217      1     51      9      0.1000E-01       62.50    
   5218      1     51     10      0.1000E-01       62.50    
   5219      1     51     11      0.1000E-01       62.50    
   5220      1     51     12      0.1000E-01       62.50    
   5221      1     51     13      0.1000E-01       62.50    
   5222      1     51     14      0.1000E-01       62.50    
   5223      1     51     15      0.1000E-01       62.50    
   5224      1     51     16      0.1000E-01       62.50    
   5225      1     51     17      0.1000E-01       62.50    
   5226      1     51     18      0.1000E-01       62.50    
   5227      1     51     19      0.1000E-01       62.50    
   5228      1     51     20      0.1000E-01       62.50    
   5229      1     51     21      0.1000E-01       62.50    
   5230      1     51    106      0.1000E-01       62.50    
   5231      1     51    107      0.1000E-01       62.50    
   5232      1     51    108      0.1000E-01       62.50    
   5233      1     51    109      0.1000E-01       62.50    
   5234      1     51    110      0.1000E-01       62.50    
   5235      1     51    111      0.1000E-01       62.50    
   5236      1     51    112      0.1000E-01       62.50    
   5237      1     51    113      0.1000E-01       62.50    
   5238      1     51    114      0.1000E-01       62.50    
   5239      1     51    115      0.1000E-01       62.50    
   5240      1     51    116      0.1000E-01       62.50    
   5241      1     51    117      0.1000E-01       62.50    
   5242      1     51    118      0.1000E-01       62.50    
   5243      1     51    119      0.1000E-01       62.50    
   5244      1     51    120      0.1000E-01       62.50    
   5245      1     51    121      0.1000E-01       62.50    
   5246      1     51    122      0.1000E-01       62.50    
   5247      1     51    123      0.1000E-01       62.50    
   5248      1     51    124      0.1000E-01       62.50    
   5249      1     51    125      0.1000E-01       62.50    
   5250      1     51    126      0.1000E-01       62.50    
   5251      1     51    127      0.1000E-01       62.50    
   5252      1     51    128      0.1000E-01       62.50    
   5253      1     51    129      0.1000E-01       62.50    
   5254      1     51    130      0.1000E-01       62.50    
   5255      1     51    131      0.1000E-01       62.50    
   5256      1     51    132      0.1000E-01       62.50    
   5257      1     51    133      0.1000E-01       62.50    
   5258      1     51    134      0.1000E-01       62.50    
   5259      1     51    135      0.1000E-01       62.50    
   5260      1     51    136      0.1000E-01       62.50    
   5261      1     51    137      0.1000E-01       62.50    
   5262      1     51    138      0.1000E-01       62.50    
   5263      1     51    139      0.1000E-01       62.50    
   5264      1     51    140      0.1000E-01       62.50    
   5265      1     51    141      0.1000E-01       62.50    
   5266      1     51    142      0.1000E-01       62.50    
   5267      1     51    143      0.1000E-01       62.50    
   5268      1     51    144      0.1000E-01       62.50    
   5269      1     51    145      0.1000E-01       62.50    
   5270      1     51    146      0.1000E-01       62.50    
   5271      1     51    147      0.1000E-01       62.50    
   5272      1     51    148      0.1000E-01       62.50    
   5273      1     51    149      0.1000E-01       62.50    
   5274      1     51    150      0.1000E-01       62.50    
   5275      1     51    152      0.1000E-01       62.50    
   5276      1     51    153      0.1000E-01       62.50    
   5277      1     51    154      0.1000E-01       62.50    
   5278      1     51    155      0.1000E-01       62.50    
   5279      1     51    156      0.1000E-01       62.50    
   5280      1     51    157      0.1000E-01       62.50    
   5281      1     51    158      0.1000E-01       62.50    
   5282      1     51    159      0.1000E-01       62.50    
   5283      1     51    160      0.1000E-01       62.50    
   5284      1     51    161      0.1000E-01       62.50    
   5285      1     51    162      0.1000E-01       62.50    
   5286      1     51    163      0.1000E-01       62.50    
   5287      1     51    164      0.1000E-01       62.50    
   5288      1     51    165      0.1000E-01       62.50    
   5289      1     51    166      0.1000E-01       62.50    
   5290      1     51    167      0.1000E-01       62.50    
   5291      1     51    168      0.1000E-01       62.50    
   5292      1     51    169      0.1000E-01       62.50    
   5293      1     51    170      0.1000E-01       62.50    
   5294      1     51    171      0.1000E-01       62.50    
   5295      1     51    172      0.1000E-01       62.50    
   5296      1     51    173      0.1000E-01       62.50    
   5297      1     51    174      0.1000E-01       62.50    
   5298      1     51    175      0.1000E-01       62.50    
   5299      1     51    176      0.1000E-01       62.50    
   5300      1     51    177      0.1000E-01       62.50    
   5301      1     51    178      0.1000E-01       62.50    
   5302      1     51    179      0.1000E-01       62.50    
   5303      1     51    180      0.1000E-01       62.50    
   5304      1     51    181      0.1000E-01       62.50    
   5305      1     51    182      0.1000E-01       62.50    
   5306      1     51    183      0.1000E-01       62.50    
   5307      1     51    184      0.1000E-01       62.50    
   5308      1     51    185      0.1000E-01       62.50    
   5309      1     51    186      0.1000E-01       62.50    
   5310      1     51    187      0.1000E-01       62.50    
   5311      1     51    188      0.1000E-01       62.50    
   5312      1     51    189      0.1000E-01       62.50    
   5313      1     52      2      0.1000E-01       62.50    
   5314      1     52      3      0.1000E-01       62.50    
   5315      1     52      4      0.1000E-01       62.50    
   5316      1     52      5      0.1000E-01       62.50    
   5317      1     52      6      0.1000E-01       62.50    
   5318      1     52      7      0.1000E-01       62.50    
   5319      1     52      8      0.1000E-01       62.50    
   5320      1     52      9      0.1000E-01       62.50    
   5321      1     52     10      0.1000E-01       62.50    
   5322      1     52     11      0.1000E-01       62.50    
   5323      1     52     12      0.1000E-01       62.50    
   5324      1     52     13      0.1000E-01       62.50    
   5325      1     52     14      0.1000E-01       62.50    
   5326      1     52     15      0.1000E-01       62.50    
   5327      1     52     16      0.1000E-01       62.50    
   5328      1     52     17      0.1000E-01       62.50    
   5329      1     52     18      0.1000E-01       62.50    
   5330      1     52     19      0.1000E-01       62.50    
   5331      1     52    105      0.1000E-01       62.50    
   5332      1     52    106      0.1000E-01       62.50    
   5333      1     52    107      0.1000E-01       62.50    
   5334      1     52    108      0.1000E-01       62.50    
   5335      1     52    109      0.1000E-01       62.50    
   5336      1     52    110      0.1000E-01       62.50    
   5337      1     52    111      0.1000E-01       62.50    
   5338      1     52    112      0.1000E-01       62.50    
   5339      1     52    113      0.1000E-01       62.50    
   5340      1     52    114      0.1000E-01       62.50    
   5341      1     52    115      0.1000E-01       62.50    
   5342      1     52    116      0.1000E-01       62.50    
   5343      1     52    117      0.1000E-01       62.50    
   5344      1     52    118      0.1000E-01       62.50    
   5345      1     52    119      0.1000E-01       62.50    
   5346      1     52    120      0.1000E-01       62.50    
   5347      1     52    121      0.1000E-01       62.50    
   5348      1     52    122      0.1000E-01       62.50    
   5349      1     52    123      0.1000E-01       62.50    
   5350      1     52    124      0.1000E-01       62.50    
   5351      1     52    125      0.1000E-01       62.50    
   5352      1     52    126      0.1000E-01       62.50    
   5353      1     52    127      0.1000E-01       62.50    
   5354      1     52    128      0.1000E-01       62.50    
   5355      1     52    129      0.1000E-01       62.50    
   5356      1     52    130      0.1000E-01       62.50    
   5357      1     52    131      0.1000E-01       62.50    
   5358      1     52    132      0.1000E-01       62.50    
   5359      1     52    133      0.1000E-01       62.50    
   5360      1     52    134      0.1000E-01       62.50    
   5361      1     52    135      0.1000E-01       62.50    
   5362      1     52    136      0.1000E-01       62.50    
   5363      1     52    137      0.1000E-01       62.50    
   5364      1     52    138      0.1000E-01       62.50    
   5365      1     52    139      0.1000E-01       62.50    
   5366      1     52    140      0.1000E-01       62.50    
   5367      1     52    141      0.1000E-01       62.50    
   5368      1     52    142      0.1000E-01       62.50    
   5369      1     52    143      0.1000E-01       62.50    
   5370      1     52    144      0.1000E-01       62.50    
   5371      1     52    145      0.1000E-01       62.50    
   5372      1     52    146      0.1000E-01       62.50    
   5373      1     52    147      0.1000E-01       62.50    
   5374      1     52    148      0.1000E-01       62.50    
   5375      1     52    156      0.1000E-01       62.50    
   5376      1     52    157      0.1000E-01       62.50    
   5377      1     52    158      0.1000E-01       62.50    
   5378      1     52    159      0.1000E-01       62.50    
   5379      1     52    160      0.1000E-01       62.50    
   5380      1     52    161      0.1000E-01       62.50    
   5381      1     52    162      0.1000E-01       62.50    
   5382      1     52    163      0.1000E-01       62.50    
   5383      1     52    164      0.1000E-01       62.50    
   5384      1     52    165      0.1000E-01       62.50    
   5385      1     52    166      0.1000E-01       62.50    
   5386      1     52    167      0.1000E-01       62.50    
   5387      1     52    168      0.1000E-01       62.50    
   5388      1     52    169      0.1000E-01       62.50    
   5389      1     52    170      0.1000E-01       62.50    
   5390      1     52    171      0.1000E-01       62.50    
   5391      1     52    172      0.1000E-01       62.50    
   5392      1     52    173      0.1000E-01       62.50    
   5393      1     52    174      0.1000E-01       62.50    
   5394      1     52    175      0.1000E-01       62.50    
   5395      1     52    176      0.1000E-01       62.50    
   5396      1     52    177      0.1000E-01       62.50    
   5397      1     52    178      0.1000E-01       62.50    
   5398      1     52    179      0.1000E-01       62.50    
   5399      1     52    180      0.1000E-01       62.50    
   5400      1     52    181      0.1000E-01       62.50    
   5401      1     52    182      0.1000E-01       62.50    
   5402      1     52    183      0.1000E-01       62.50    
   5403      1     52    184      0.1000E-01       62.50    
   5404      1     52    185      0.1000E-01       62.50    
   5405      1     52    186      0.1000E-01       62.50    
   5406      1     52    187      0.1000E-01       62.50    
   5407      1     52    188      0.1000E-01       62.50    
   5408      1     53      2      0.1000E-01       62.50    
   5409      1     53      3      0.1000E-01       62.50    
   5410      1     53      4      0.1000E-01       62.50    
   5411      1     53      5      0.1000E-01       62.50    
   5412      1     53      6      0.1000E-01       62.50    
   5413      1     53      7      0.1000E-01       62.50    
   5414      1     53      8      0.1000E-01       62.50    
   5415      1     53      9      0.1000E-01       62.50    
   5416      1     53     10      0.1000E-01       62.50    
   5417      1     53     11      0.1000E-01       62.50    
   5418      1     53     12      0.1000E-01       62.50    
   5419      1     53     13      0.1000E-01       62.50    
   5420      1     53     14      0.1000E-01       62.50    
   5421      1     53     15      0.1000E-01       62.50    
   5422      1     53     16      0.1000E-01       62.50    
   5423      1     53     17      0.1000E-01       62.50    
   5424      1     53    105      0.1000E-01       62.50    
   5425      1     53    106      0.1000E-01       62.50    
   5426      1     53    107      0.1000E-01       62.50    
   5427      1     53    108      0.1000E-01       62.50    
   5428      1     53    109      0.1000E-01       62.50    
   5429      1     53    110      0.1000E-01       62.50    
   5430      1     53    111      0.1000E-01       62.50    
   5431      1     53    112      0.1000E-01       62.50    
   5432      1     53    113      0.1000E-01       62.50    
   5433      1     53    114      0.1000E-01       62.50    
   5434      1     53    115      0.1000E-01       62.50    
   5435      1     53    116      0.1000E-01       62.50    
   5436      1     53    117      0.1000E-01       62.50    
   5437      1     53    118      0.1000E-01       62.50    
   5438      1     53    119      0.1000E-01       62.50    
   5439      1     53    120      0.1000E-01       62.50    
   5440      1     53    121      0.1000E-01       62.50    
   5441      1     53    122      0.1000E-01       62.50    
   5442      1     53    123      0.1000E-01       62.50    
   5443      1     53    124      0.1000E-01       62.50    
   5444      1     53    125      0.1000E-01       62.50    
   5445      1     53    126      0.1000E-01       62.50    
   5446      1     53    127      0.1000E-01       62.50    
   5447      1     53    128      0.1000E-01       62.50    
   5448      1     53    129      0.1000E-01       62.50    
   5449      1     53    130      0.1000E-01       62.50    
   5450      1     53    131      0.1000E-01       62.50    
   5451      1     53    132      0.1000E-01       62.50    
   5452      1     53    133      0.1000E-01       62.50    
   5453      1     53    134      0.1000E-01       62.50    
   5454      1     53    135      0.1000E-01       62.50    
   5455      1     53    136      0.1000E-01       62.50    
   5456      1     53    137      0.1000E-01       62.50    
   5457      1     53    138      0.1000E-01       62.50    
   5458      1     53    139      0.1000E-01       62.50    
   5459      1     53    140      0.1000E-01       62.50    
   5460      1     53    141      0.1000E-01       62.50    
   5461      1     53    142      0.1000E-01       62.50    
   5462      1     53    143      0.1000E-01       62.50    
   5463      1     53    144      0.1000E-01       62.50    
   5464      1     53    145      0.1000E-01       62.50    
   5465      1     53    146      0.1000E-01       62.50    
   5466      1     53    147      0.1000E-01       62.50    
   5467      1     53    161      0.1000E-01       62.50    
   5468      1     53    162      0.1000E-01       62.50    
   5469      1     53    163      0.1000E-01       62.50    
   5470      1     53    164      0.1000E-01       62.50    
   5471      1     53    165      0.1000E-01       62.50    
   5472      1     53    166      0.1000E-01       62.50    
   5473      1     53    167      0.1000E-01       62.50    
   5474      1     53    168      0.1000E-01       62.50    
   5475      1     53    169      0.1000E-01       62.50    
   5476      1     53    170      0.1000E-01       62.50    
   5477      1     53    171      0.1000E-01       62.50    
   5478      1     53    172      0.1000E-01       62.50    
   5479      1     53    173      0.1000E-01       62.50    
   5480      1     53    174      0.1000E-01       62.50    
   5481      1     53    175      0.1000E-01       62.50    
   5482      1     53    176      0.1000E-01       62.50    
   5483      1     53    177      0.1000E-01       62.50    
   5484      1     53    178      0.1000E-01       62.50    
   5485      1     53    179      0.1000E-01       62.50    
   5486      1     53    180      0.1000E-01       62.50    
   5487      1     53    181      0.1000E-01       62.50    
   5488      1     53    182      0.1000E-01       62.50    
   5489      1     54      2      0.1000E-01       62.50    
   5490      1     54      3      0.1000E-01       62.50    
   5491      1     54      4      0.1000E-01       62.50    
   5492      1     54      5      0.1000E-01       62.50    
   5493      1     54      6      0.1000E-01       62.50    
   5494      1     54      7      0.1000E-01       62.50    
   5495      1     54      8      0.1000E-01       62.50    
   5496      1     54      9      0.1000E-01       62.50    
   5497      1     54     10      0.1000E-01       62.50    
   5498      1     54     11      0.1000E-01       62.50    
   5499      1     54     12      0.1000E-01       62.50    
   5500      1     54     13      0.1000E-01       62.50    
   5501      1     54     14      0.1000E-01       62.50    
   5502      1     54     15      0.1000E-01       62.50    
   5503      1     54     16      0.1000E-01       62.50    
   5504      1     54    104      0.1000E-01       62.50    
   5505      1     54    105      0.1000E-01       62.50    
   5506      1     54    106      0.1000E-01       62.50    
   5507      1     54    107      0.1000E-01       62.50    
   5508      1     54    108      0.1000E-01       62.50    
   5509      1     54    109      0.1000E-01       62.50    
   5510      1     54    110      0.1000E-01       62.50    
   5511      1     54    111      0.1000E-01       62.50    
   5512      1     54    112      0.1000E-01       62.50    
   5513      1     54    113      0.1000E-01       62.50    
   5514      1     54    114      0.1000E-01       62.50    
   5515      1     54    115      0.1000E-01       62.50    
   5516      1     54    116      0.1000E-01       62.50    
   5517      1     54    117      0.1000E-01       62.50    
   5518      1     54    118      0.1000E-01       62.50    
   5519      1     54    119      0.1000E-01       62.50    
   5520      1     54    120      0.1000E-01       62.50    
   5521      1     54    121      0.1000E-01       62.50    
   5522      1     54    122      0.1000E-01       62.50    
   5523      1     54    123      0.1000E-01       62.50    
   5524      1     54    124      0.1000E-01       62.50    
   5525      1     54    125      0.1000E-01       62.50    
   5526      1     54    126      0.1000E-01       62.50    
   5527      1     54    127      0.1000E-01       62.50    
   5528      1     54    128      0.1000E-01       62.50    
   5529      1     54    129      0.1000E-01       62.50    
   5530      1     54    130      0.1000E-01       62.50    
   5531      1     54    131      0.1000E-01       62.50    
   5532      1     54    132      0.1000E-01       62.50    
   5533      1     54    133      0.1000E-01       62.50    
   5534      1     54    134      0.1000E-01       62.50    
   5535      1     54    135      0.1000E-01       62.50    
   5536      1     54    136      0.1000E-01       62.50    
   5537      1     54    137      0.1000E-01       62.50    
   5538      1     54    138      0.1000E-01       62.50    
   5539      1     54    139      0.1000E-01       62.50    
   5540      1     54    140      0.1000E-01       62.50    
   5541      1     54    141      0.1000E-01       62.50    
   5542      1     54    142      0.1000E-01       62.50    
   5543      1     54    143      0.1000E-01       62.50    
   5544      1     54    144      0.1000E-01       62.50    
   5545      1     54    145      0.1000E-01       62.50    
   5546      1     54    166      0.1000E-01       62.50    
   5547      1     54    167      0.1000E-01       62.50    
   5548      1     54    168      0.1000E-01       62.50    
   5549      1     54    169      0.1000E-01       62.50    
   5550      1     54    170      0.1000E-01       62.50    
   5551      1     54    171      0.1000E-01       62.50    
   5552      1     54    172      0.1000E-01       62.50    
   5553      1     55      2      0.1000E-01       62.50    
   5554      1     55      3      0.1000E-01       62.50    
   5555      1     55      4      0.1000E-01       62.50    
   5556      1     55      5      0.1000E-01       62.50    
   5557      1     55      6      0.1000E-01       62.50    
   5558      1     55      7      0.1000E-01       62.50    
   5559      1     55      8      0.1000E-01       62.50    
   5560      1     55      9      0.1000E-01       62.50    
   5561      1     55     10      0.1000E-01       62.50    
   5562      1     55     11      0.1000E-01       62.50    
   5563      1     55     12      0.1000E-01       62.50    
   5564      1     55     13      0.1000E-01       62.50    
   5565      1     55     14      0.1000E-01       62.50    
   5566      1     55     15      0.1000E-01       62.50    
   5567      1     55     16      0.1000E-01       62.50    
   5568      1     55     98      0.1000E-01       62.50    
   5569      1     55     99      0.1000E-01       62.50    
   5570      1     55    103      0.1000E-01       62.50    
   5571      1     55    104      0.1000E-01       62.50    
   5572      1     55    105      0.1000E-01       62.50    
   5573      1     55    106      0.1000E-01       62.50    
   5574      1     55    107      0.1000E-01       62.50    
   5575      1     55    108      0.1000E-01       62.50    
   5576      1     55    109      0.1000E-01       62.50    
   5577      1     55    110      0.1000E-01       62.50    
   5578      1     55    111      0.1000E-01       62.50    
   5579      1     55    112      0.1000E-01       62.50    
   5580      1     55    113      0.1000E-01       62.50    
   5581      1     55    114      0.1000E-01       62.50    
   5582      1     55    115      0.1000E-01       62.50    
   5583      1     55    116      0.1000E-01       62.50    
   5584      1     55    117      0.1000E-01       62.50    
   5585      1     55    118      0.1000E-01       62.50    
   5586      1     55    119      0.1000E-01       62.50    
   5587      1     55    120      0.1000E-01       62.50    
   5588      1     55    121      0.1000E-01       62.50    
   5589      1     55    122      0.1000E-01       62.50    
   5590      1     55    123      0.1000E-01       62.50    
   5591      1     55    124      0.1000E-01       62.50    
   5592      1     55    125      0.1000E-01       62.50    
   5593      1     55    126      0.1000E-01       62.50    
   5594      1     55    127      0.1000E-01       62.50    
   5595      1     55    128      0.1000E-01       62.50    
   5596      1     55    129      0.1000E-01       62.50    
   5597      1     55    130      0.1000E-01       62.50    
   5598      1     55    131      0.1000E-01       62.50    
   5599      1     55    132      0.1000E-01       62.50    
   5600      1     55    133      0.1000E-01       62.50    
   5601      1     55    134      0.1000E-01       62.50    
   5602      1     55    135      0.1000E-01       62.50    
   5603      1     55    136      0.1000E-01       62.50    
   5604      1     55    137      0.1000E-01       62.50    
   5605      1     55    138      0.1000E-01       62.50    
   5606      1     55    139      0.1000E-01       62.50    
   5607      1     55    140      0.1000E-01       62.50    
   5608      1     55    141      0.1000E-01       62.50    
   5609      1     55    142      0.1000E-01       62.50    
   5610      1     55    143      0.1000E-01       62.50    
   5611      1     56      2      0.1000E-01       62.50    
   5612      1     56      3      0.1000E-01       62.50    
   5613      1     56      4      0.1000E-01       62.50    
   5614      1     56      5      0.1000E-01       62.50    
   5615      1     56      6      0.1000E-01       62.50    
   5616      1     56      7      0.1000E-01       62.50    
   5617      1     56      8      0.1000E-01       62.50    
   5618      1     56      9      0.1000E-01       62.50    
   5619      1     56     10      0.1000E-01       62.50    
   5620      1     56     11      0.1000E-01       62.50    
   5621      1     56     12      0.1000E-01       62.50    
   5622      1     56     13      0.1000E-01       62.50    
   5623      1     56     14      0.1000E-01       62.50    
   5624      1     56     15      0.1000E-01       62.50    
   5625      1     56     16      0.1000E-01       62.50    
   5626      1     56     93      0.1000E-01       62.50    
   5627      1     56     95      0.1000E-01       62.50    
   5628      1     56     96      0.1000E-01       62.50    
   5629      1     56     97      0.1000E-01       62.50    
   5630      1     56     98      0.1000E-01       62.50    
   5631      1     56     99      0.1000E-01       62.50    
   5632      1     56    100      0.1000E-01       62.50    
   5633      1     56    103      0.1000E-01       62.50    
   5634      1     56    104      0.1000E-01       62.50    
   5635      1     56    105      0.1000E-01       62.50    
   5636      1     56    106      0.1000E-01       62.50    
   5637      1     56    107      0.1000E-01       62.50    
   5638      1     56    108      0.1000E-01       62.50    
   5639      1     56    109      0.1000E-01       62.50    
   5640      1     56    110      0.1000E-01       62.50    
   5641      1     56    111      0.1000E-01       62.50    
   5642      1     56    112      0.1000E-01       62.50    
   5643      1     56    113      0.1000E-01       62.50    
   5644      1     56    114      0.1000E-01       62.50    
   5645      1     56    115      0.1000E-01       62.50    
   5646      1     56    116      0.1000E-01       62.50    
   5647      1     56    117      0.1000E-01       62.50    
   5648      1     56    118      0.1000E-01       62.50    
   5649      1     56    119      0.1000E-01       62.50    
   5650      1     56    120      0.1000E-01       62.50    
   5651      1     56    121      0.1000E-01       62.50    
   5652      1     56    122      0.1000E-01       62.50    
   5653      1     56    123      0.1000E-01       62.50    
   5654      1     56    124      0.1000E-01       62.50    
   5655      1     56    125      0.1000E-01       62.50    
   5656      1     56    126      0.1000E-01       62.50    
   5657      1     56    127      0.1000E-01       62.50    
   5658      1     56    128      0.1000E-01       62.50    
   5659      1     56    129      0.1000E-01       62.50    
   5660      1     56    130      0.1000E-01       62.50    
   5661      1     56    131      0.1000E-01       62.50    
   5662      1     56    132      0.1000E-01       62.50    
   5663      1     56    133      0.1000E-01       62.50    
   5664      1     56    134      0.1000E-01       62.50    
   5665      1     56    135      0.1000E-01       62.50    
   5666      1     56    136      0.1000E-01       62.50    
   5667      1     56    137      0.1000E-01       62.50    
   5668      1     56    138      0.1000E-01       62.50    
   5669      1     56    139      0.1000E-01       62.50    
   5670      1     56    140      0.1000E-01       62.50    
   5671      1     56    141      0.1000E-01       62.50    
   5672      1     57      2      0.1000E-01       62.50    
   5673      1     57      3      0.1000E-01       62.50    
   5674      1     57      4      0.1000E-01       62.50    
   5675      1     57      5      0.1000E-01       62.50    
   5676      1     57      6      0.1000E-01       62.50    
   5677      1     57      7      0.1000E-01       62.50    
   5678      1     57      8      0.1000E-01       62.50    
   5679      1     57      9      0.1000E-01       62.50    
   5680      1     57     10      0.1000E-01       62.50    
   5681      1     57     11      0.1000E-01       62.50    
   5682      1     57     12      0.1000E-01       62.50    
   5683      1     57     13      0.1000E-01       62.50    
   5684      1     57     14      0.1000E-01       62.50    
   5685      1     57     15      0.1000E-01       62.50    
   5686      1     57     16      0.1000E-01       62.50    
   5687      1     57     96      0.1000E-01       62.50    
   5688      1     57     97      0.1000E-01       62.50    
   5689      1     57     98      0.1000E-01       62.50    
   5690      1     57     99      0.1000E-01       62.50    
   5691      1     57    100      0.1000E-01       62.50    
   5692      1     57    103      0.1000E-01       62.50    
   5693      1     57    104      0.1000E-01       62.50    
   5694      1     57    105      0.1000E-01       62.50    
   5695      1     57    106      0.1000E-01       62.50    
   5696      1     57    107      0.1000E-01       62.50    
   5697      1     57    108      0.1000E-01       62.50    
   5698      1     57    109      0.1000E-01       62.50    
   5699      1     57    110      0.1000E-01       62.50    
   5700      1     57    111      0.1000E-01       62.50    
   5701      1     57    112      0.1000E-01       62.50    
   5702      1     57    113      0.1000E-01       62.50    
   5703      1     57    114      0.1000E-01       62.50    
   5704      1     57    115      0.1000E-01       62.50    
   5705      1     57    116      0.1000E-01       62.50    
   5706      1     57    117      0.1000E-01       62.50    
   5707      1     57    118      0.1000E-01       62.50    
   5708      1     57    119      0.1000E-01       62.50    
   5709      1     57    120      0.1000E-01       62.50    
   5710      1     57    121      0.1000E-01       62.50    
   5711      1     57    122      0.1000E-01       62.50    
   5712      1     57    123      0.1000E-01       62.50    
   5713      1     57    124      0.1000E-01       62.50    
   5714      1     57    125      0.1000E-01       62.50    
   5715      1     57    126      0.1000E-01       62.50    
   5716      1     57    127      0.1000E-01       62.50    
   5717      1     57    128      0.1000E-01       62.50    
   5718      1     57    129      0.1000E-01       62.50    
   5719      1     57    130      0.1000E-01       62.50    
   5720      1     57    131      0.1000E-01       62.50    
   5721      1     57    132      0.1000E-01       62.50    
   5722      1     57    133      0.1000E-01       62.50    
   5723      1     57    134      0.1000E-01       62.50    
   5724      1     57    135      0.1000E-01       62.50    
   5725      1     57    136      0.1000E-01       62.50    
   5726      1     57    137      0.1000E-01       62.50    
   5727      1     57    138      0.1000E-01       62.50    
   5728      1     57    139      0.1000E-01       62.50    
   5729      1     58      2      0.1000E-01       62.50    
   5730      1     58      3      0.1000E-01       62.50    
   5731      1     58      4      0.1000E-01       62.50    
   5732      1     58      5      0.1000E-01       62.50    
   5733      1     58      6      0.1000E-01       62.50    
   5734      1     58      7      0.1000E-01       62.50    
   5735      1     58      8      0.1000E-01       62.50    
   5736      1     58      9      0.1000E-01       62.50    
   5737      1     58     10      0.1000E-01       62.50    
   5738      1     58     11      0.1000E-01       62.50    
   5739      1     58     12      0.1000E-01       62.50    
   5740      1     58     13      0.1000E-01       62.50    
   5741      1     58     14      0.1000E-01       62.50    
   5742      1     58     15      0.1000E-01       62.50    
   5743      1     58     94      0.1000E-01       62.50    
   5744      1     58     95      0.1000E-01       62.50    
   5745      1     58     96      0.1000E-01       62.50    
   5746      1     58     97      0.1000E-01       62.50    
   5747      1     58     98      0.1000E-01       62.50    
   5748      1     58     99      0.1000E-01       62.50    
   5749      1     58    100      0.1000E-01       62.50    
   5750      1     58    102      0.1000E-01       62.50    
   5751      1     58    103      0.1000E-01       62.50    
   5752      1     58    104      0.1000E-01       62.50    
   5753      1     58    105      0.1000E-01       62.50    
   5754      1     58    106      0.1000E-01       62.50    
   5755      1     58    107      0.1000E-01       62.50    
   5756      1     58    108      0.1000E-01       62.50    
   5757      1     58    109      0.1000E-01       62.50    
   5758      1     58    110      0.1000E-01       62.50    
   5759      1     58    111      0.1000E-01       62.50    
   5760      1     58    112      0.1000E-01       62.50    
   5761      1     58    113      0.1000E-01       62.50    
   5762      1     58    114      0.1000E-01       62.50    
   5763      1     58    115      0.1000E-01       62.50    
   5764      1     58    116      0.1000E-01       62.50    
   5765      1     58    117      0.1000E-01       62.50    
   5766      1     58    118      0.1000E-01       62.50    
   5767      1     58    119      0.1000E-01       62.50    
   5768      1     58    120      0.1000E-01       62.50    
   5769      1     58    121      0.1000E-01       62.50    
   5770      1     58    122      0.1000E-01       62.50    
   5771      1     58    123      0.1000E-01       62.50    
   5772      1     58    124      0.1000E-01       62.50    
   5773      1     58    125      0.1000E-01       62.50    
   5774      1     58    126      0.1000E-01       62.50    
   5775      1     58    127      0.1000E-01       62.50    
   5776      1     58    128      0.1000E-01       62.50    
   5777      1     58    129      0.1000E-01       62.50    
   5778      1     58    130      0.1000E-01       62.50    
   5779      1     58    131      0.1000E-01       62.50    
   5780      1     58    132      0.1000E-01       62.50    
   5781      1     58    133      0.1000E-01       62.50    
   5782      1     58    134      0.1000E-01       62.50    
   5783      1     58    135      0.1000E-01       62.50    
   5784      1     58    136      0.1000E-01       62.50    
   5785      1     58    137      0.1000E-01       62.50    
   5786      1     59      2      0.1000E-01       62.50    
   5787      1     59      3      0.1000E-01       62.50    
   5788      1     59      4      0.1000E-01       62.50    
   5789      1     59      5      0.1000E-01       62.50    
   5790      1     59      6      0.1000E-01       62.50    
   5791      1     59      7      0.1000E-01       62.50    
   5792      1     59      8      0.1000E-01       62.50    
   5793      1     59      9      0.1000E-01       62.50    
   5794      1     59     10      0.1000E-01       62.50    
   5795      1     59     11      0.1000E-01       62.50    
   5796      1     59     12      0.1000E-01       62.50    
   5797      1     59     13      0.1000E-01       62.50    
   5798      1     59     14      0.1000E-01       62.50    
   5799      1     59     15      0.1000E-01       62.50    
   5800      1     59     92      0.1000E-01       62.50    
   5801      1     59     93      0.1000E-01       62.50    
   5802      1     59     94      0.1000E-01       62.50    
   5803      1     59     95      0.1000E-01       62.50    
   5804      1     59     96      0.1000E-01       62.50    
   5805      1     59     97      0.1000E-01       62.50    
   5806      1     59     98      0.1000E-01       62.50    
   5807      1     59     99      0.1000E-01       62.50    
   5808      1     59    101      0.1000E-01       62.50    
   5809      1     59    102      0.1000E-01       62.50    
   5810      1     59    103      0.1000E-01       62.50    
   5811      1     59    104      0.1000E-01       62.50    
   5812      1     59    105      0.1000E-01       62.50    
   5813      1     59    106      0.1000E-01       62.50    
   5814      1     59    107      0.1000E-01       62.50    
   5815      1     59    108      0.1000E-01       62.50    
   5816      1     59    109      0.1000E-01       62.50    
   5817      1     59    110      0.1000E-01       62.50    
   5818      1     59    111      0.1000E-01       62.50    
   5819      1     59    112      0.1000E-01       62.50    
   5820      1     59    113      0.1000E-01       62.50    
   5821      1     59    114      0.1000E-01       62.50    
   5822      1     59    115      0.1000E-01       62.50    
   5823      1     59    116      0.1000E-01       62.50    
   5824      1     59    117      0.1000E-01       62.50    
   5825      1     59    118      0.1000E-01       62.50    
   5826      1     59    119      0.1000E-01       62.50    
   5827      1     59    120      0.1000E-01       62.50    
   5828      1     59    121      0.1000E-01       62.50    
   5829      1     59    122      0.1000E-01       62.50    
   5830      1     59    123      0.1000E-01       62.50    
   5831      1     59    124      0.1000E-01       62.50    
   5832      1     59    125      0.1000E-01       62.50    
   5833      1     59    126      0.1000E-01       62.50    
   5834      1     59    127      0.1000E-01       62.50    
   5835      1     59    128      0.1000E-01       62.50    
   5836      1     59    129      0.1000E-01       62.50    
   5837      1     59    130      0.1000E-01       62.50    
   5838      1     59    131      0.1000E-01       62.50    
   5839      1     59    132      0.1000E-01       62.50    
   5840      1     59    133      0.1000E-01       62.50    
   5841      1     59    134      0.1000E-01       62.50    
   5842      1     59    135      0.1000E-01       62.50    
   5843      1     60      2      0.1000E-01       62.50    
   5844      1     60      3      0.1000E-01       62.50    
   5845      1     60      4      0.1000E-01       62.50    
   5846      1     60      5      0.1000E-01       62.50    
   5847      1     60      6      0.1000E-01       62.50    
   5848      1     60      7      0.1000E-01       62.50    
   5849      1     60      8      0.1000E-01       62.50    
   5850      1     60      9      0.1000E-01       62.50    
   5851      1     60     10      0.1000E-01       62.50    
   5852      1     60     11      0.1000E-01       62.50    
   5853      1     60     12      0.1000E-01       62.50    
   5854      1     60     93      0.1000E-01       62.50    
   5855      1     60     94      0.1000E-01       62.50    
   5856      1     60     95      0.1000E-01       62.50    
   5857      1     60     96      0.1000E-01       62.50    
   5858      1     60     97      0.1000E-01       62.50    
   5859      1     60     98      0.1000E-01       62.50    
   5860      1     60     99      0.1000E-01       62.50    
   5861      1     60    100      0.1000E-01       62.50    
   5862      1     60    101      0.1000E-01       62.50    
   5863      1     60    102      0.1000E-01       62.50    
   5864      1     60    103      0.1000E-01       62.50    
   5865      1     60    104      0.1000E-01       62.50    
   5866      1     60    105      0.1000E-01       62.50    
   5867      1     60    106      0.1000E-01       62.50    
   5868      1     60    107      0.1000E-01       62.50    
   5869      1     60    108      0.1000E-01       62.50    
   5870      1     60    109      0.1000E-01       62.50    
   5871      1     60    110      0.1000E-01       62.50    
   5872      1     60    111      0.1000E-01       62.50    
   5873      1     60    112      0.1000E-01       62.50    
   5874      1     60    113      0.1000E-01       62.50    
   5875      1     60    114      0.1000E-01       62.50    
   5876      1     60    115      0.1000E-01       62.50    
   5877      1     60    116      0.1000E-01       62.50    
   5878      1     60    117      0.1000E-01       62.50    
   5879      1     60    118      0.1000E-01       62.50    
   5880      1     60    119      0.1000E-01       62.50    
   5881      1     60    120      0.1000E-01       62.50    
   5882      1     60    121      0.1000E-01       62.50    
   5883      1     60    122      0.1000E-01       62.50    
   5884      1     60    123      0.1000E-01       62.50    
   5885      1     60    124      0.1000E-01       62.50    
   5886      1     60    125      0.1000E-01       62.50    
   5887      1     60    126      0.1000E-01       62.50    
   5888      1     60    127      0.1000E-01       62.50    
   5889      1     60    128      0.1000E-01       62.50    
   5890      1     60    129      0.1000E-01       62.50    
   5891      1     60    130      0.1000E-01       62.50    
   5892      1     60    131      0.1000E-01       62.50    
   5893      1     60    132      0.1000E-01       62.50    
   5894      1     60    133      0.1000E-01       62.50    
   5895      1     61      2      0.1000E-01       62.50    
   5896      1     61      3      0.1000E-01       62.50    
   5897      1     61      4      0.1000E-01       62.50    
   5898      1     61      5      0.1000E-01       62.50    
   5899      1     61      6      0.1000E-01       62.50    
   5900      1     61      7      0.1000E-01       62.50    
   5901      1     61      8      0.1000E-01       62.50    
   5902      1     61      9      0.1000E-01       62.50    
   5903      1     61     93      0.1000E-01       62.50    
   5904      1     61     94      0.1000E-01       62.50    
   5905      1     61     95      0.1000E-01       62.50    
   5906      1     61     96      0.1000E-01       62.50    
   5907      1     61     97      0.1000E-01       62.50    
   5908      1     61     98      0.1000E-01       62.50    
   5909      1     61    101      0.1000E-01       62.50    
   5910      1     61    102      0.1000E-01       62.50    
   5911      1     61    103      0.1000E-01       62.50    
   5912      1     61    104      0.1000E-01       62.50    
   5913      1     61    105      0.1000E-01       62.50    
   5914      1     61    106      0.1000E-01       62.50    
   5915      1     61    107      0.1000E-01       62.50    
   5916      1     61    108      0.1000E-01       62.50    
   5917      1     61    109      0.1000E-01       62.50    
   5918      1     61    110      0.1000E-01       62.50    
   5919      1     61    111      0.1000E-01       62.50    
   5920      1     61    112      0.1000E-01       62.50    
   5921      1     61    113      0.1000E-01       62.50    
   5922      1     61    114      0.1000E-01       62.50    
   5923      1     61    115      0.1000E-01       62.50    
   5924      1     61    116      0.1000E-01       62.50    
   5925      1     61    117      0.1000E-01       62.50    
   5926      1     61    118      0.1000E-01       62.50    
   5927      1     61    119      0.1000E-01       62.50    
   5928      1     61    120      0.1000E-01       62.50    
   5929      1     61    121      0.1000E-01       62.50    
   5930      1     61    122      0.1000E-01       62.50    
   5931      1     61    123      0.1000E-01       62.50    
   5932      1     61    124      0.1000E-01       62.50    
   5933      1     61    125      0.1000E-01       62.50    
   5934      1     61    126      0.1000E-01       62.50    
   5935      1     61    127      0.1000E-01       62.50    
   5936      1     61    128      0.1000E-01       62.50    
   5937      1     61    129      0.1000E-01       62.50    
   5938      1     61    130      0.1000E-01       62.50    
   5939      1     61    131      0.1000E-01       62.50    
   5940      1     62      2      0.1000E-01       62.50    
   5941      1     62      3      0.1000E-01       62.50    
   5942      1     62      4      0.1000E-01       62.50    
   5943      1     62      5      0.1000E-01       62.50    
   5944      1     62      6      0.1000E-01       62.50    
   5945      1     62      7      0.1000E-01       62.50    
   5946      1     62      8      0.1000E-01       62.50    
   5947      1     62      9      0.1000E-01       62.50    
   5948      1     62     10      0.1000E-01       62.50    
   5949      1     62     11      0.1000E-01       62.50    
   5950      1     62     94      0.1000E-01       62.50    
   5951      1     62     95      0.1000E-01       62.50    
   5952      1     62     96      0.1000E-01       62.50    
   5953      1     62     97      0.1000E-01       62.50    
   5954      1     62     98      0.1000E-01       62.50    
   5955      1     62     99      0.1000E-01       62.50    
   5956      1     62    100      0.1000E-01       62.50    
   5957      1     62    101      0.1000E-01       62.50    
   5958      1     62    102      0.1000E-01       62.50    
   5959      1     62    103      0.1000E-01       62.50    
   5960      1     62    104      0.1000E-01       62.50    
   5961      1     62    105      0.1000E-01       62.50    
   5962      1     62    106      0.1000E-01       62.50    
   5963      1     62    107      0.1000E-01       62.50    
   5964      1     62    108      0.1000E-01       62.50    
   5965      1     62    109      0.1000E-01       62.50    
   5966      1     62    110      0.1000E-01       62.50    
   5967      1     62    111      0.1000E-01       62.50    
   5968      1     62    112      0.1000E-01       62.50    
   5969      1     62    113      0.1000E-01       62.50    
   5970      1     62    114      0.1000E-01       62.50    
   5971      1     62    115      0.1000E-01       62.50    
   5972      1     62    116      0.1000E-01       62.50    
   5973      1     62    117      0.1000E-01       62.50    
   5974      1     62    118      0.1000E-01       62.50    
   5975      1     62    119      0.1000E-01       62.50    
   5976      1     62    120      0.1000E-01       62.50    
   5977      1     62    121      0.1000E-01       62.50    
   5978      1     62    122      0.1000E-01       62.50    
   5979      1     62    123      0.1000E-01       62.50    
   5980      1     62    124      0.1000E-01       62.50    
   5981      1     62    125      0.1000E-01       62.50    
   5982      1     62    126      0.1000E-01       62.50    
   5983      1     62    127      0.1000E-01       62.50    
   5984      1     62    128      0.1000E-01       62.50    
   5985      1     62    129      0.1000E-01       62.50    
   5986      1     62    130      0.1000E-01       62.50    
   5987      1     63      2      0.1000E-01       62.50    
   5988      1     63      3      0.1000E-01       62.50    
   5989      1     63      4      0.1000E-01       62.50    
   5990      1     63      5      0.1000E-01       62.50    
   5991      1     63      6      0.1000E-01       62.50    
   5992      1     63      7      0.1000E-01       62.50    
   5993      1     63      8      0.1000E-01       62.50    
   5994      1     63      9      0.1000E-01       62.50    
   5995      1     63     10      0.1000E-01       62.50    
   5996      1     63     11      0.1000E-01       62.50    
   5997      1     63     12      0.1000E-01       62.50    
   5998      1     63     13      0.1000E-01       62.50    
   5999      1     63     94      0.1000E-01       62.50    
   6000      1     63     95      0.1000E-01       62.50    
   6001      1     63     96      0.1000E-01       62.50    
   6002      1     63     97      0.1000E-01       62.50    
   6003      1     63     98      0.1000E-01       62.50    
   6004      1     63     99      0.1000E-01       62.50    
   6005      1     63    100      0.1000E-01       62.50    
   6006      1     63    101      0.1000E-01       62.50    
   6007      1     63    102      0.1000E-01       62.50    
   6008      1     63    103      0.1000E-01       62.50    
   6009      1     63    104      0.1000E-01       62.50    
   6010      1     63    105      0.1000E-01       62.50    
   6011      1     63    106      0.1000E-01       62.50    
   6012      1     63    107      0.1000E-01       62.50    
   6013      1     63    108      0.1000E-01       62.50    
   6014      1     63    109      0.1000E-01       62.50    
   6015      1     63    110      0.1000E-01       62.50    
   6016      1     63    111      0.1000E-01       62.50    
   6017      1     63    112      0.1000E-01       62.50    
   6018      1     63    113      0.1000E-01       62.50    
   6019      1     63    114      0.1000E-01       62.50    
   6020      1     63    115      0.1000E-01       62.50    
   6021      1     63    116      0.1000E-01       62.50    
   6022      1     63    117      0.1000E-01       62.50    
   6023      1     63    118      0.1000E-01       62.50    
   6024      1     63    119      0.1000E-01       62.50    
   6025      1     63    120      0.1000E-01       62.50    
   6026      1     63    121      0.1000E-01       62.50    
   6027      1     63    122      0.1000E-01       62.50    
   6028      1     63    123      0.1000E-01       62.50    
   6029      1     63    124      0.1000E-01       62.50    
   6030      1     63    125      0.1000E-01       62.50    
   6031      1     63    126      0.1000E-01       62.50    
   6032      1     63    127      0.1000E-01       62.50    
   6033      1     63    128      0.1000E-01       62.50    
   6034      1     64      2      0.1000E-01       62.50    
   6035      1     64      3      0.1000E-01       62.50    
   6036      1     64      4      0.1000E-01       62.50    
   6037      1     64      5      0.1000E-01       62.50    
   6038      1     64      6      0.1000E-01       62.50    
   6039      1     64      7      0.1000E-01       62.50    
   6040      1     64      8      0.1000E-01       62.50    
   6041      1     64      9      0.1000E-01       62.50    
   6042      1     64     10      0.1000E-01       62.50    
   6043      1     64     11      0.1000E-01       62.50    
   6044      1     64     12      0.1000E-01       62.50    
   6045      1     64     13      0.1000E-01       62.50    
   6046      1     64     14      0.1000E-01       62.50    
   6047      1     64     15      0.1000E-01       62.50    
   6048      1     64     16      0.1000E-01       62.50    
   6049      1     64     17      0.1000E-01       62.50    
   6050      1     64     18      0.1000E-01       62.50    
   6051      1     64     31      0.1000E-01       62.50    
   6052      1     64     32      0.1000E-01       62.50    
   6053      1     64    102      0.1000E-01       62.50    
   6054      1     64    103      0.1000E-01       62.50    
   6055      1     64    104      0.1000E-01       62.50    
   6056      1     64    105      0.1000E-01       62.50    
   6057      1     64    106      0.1000E-01       62.50    
   6058      1     64    107      0.1000E-01       62.50    
   6059      1     64    108      0.1000E-01       62.50    
   6060      1     64    109      0.1000E-01       62.50    
   6061      1     64    110      0.1000E-01       62.50    
   6062      1     64    111      0.1000E-01       62.50    
   6063      1     64    112      0.1000E-01       62.50    
   6064      1     64    113      0.1000E-01       62.50    
   6065      1     64    114      0.1000E-01       62.50    
   6066      1     64    115      0.1000E-01       62.50    
   6067      1     64    116      0.1000E-01       62.50    
   6068      1     64    117      0.1000E-01       62.50    
   6069      1     64    118      0.1000E-01       62.50    
   6070      1     64    119      0.1000E-01       62.50    
   6071      1     64    120      0.1000E-01       62.50    
   6072      1     64    121      0.1000E-01       62.50    
   6073      1     64    122      0.1000E-01       62.50    
   6074      1     64    123      0.1000E-01       62.50    
   6075      1     64    124      0.1000E-01       62.50    
   6076      1     64    125      0.1000E-01       62.50    
   6077      1     64    126      0.1000E-01       62.50    
   6078      1     65      2      0.1000E-01       62.50    
   6079      1     65      3      0.1000E-01       62.50    
   6080      1     65      4      0.1000E-01       62.50    
   6081      1     65      5      0.1000E-01       62.50    
   6082      1     65      6      0.1000E-01       62.50    
   6083      1     65      7      0.1000E-01       62.50    
   6084      1     65      8      0.1000E-01       62.50    
   6085      1     65      9      0.1000E-01       62.50    
   6086      1     65     10      0.1000E-01       62.50    
   6087      1     65     11      0.1000E-01       62.50    
   6088      1     65     12      0.1000E-01       62.50    
   6089      1     65     13      0.1000E-01       62.50    
   6090      1     65     14      0.1000E-01       62.50    
   6091      1     65     15      0.1000E-01       62.50    
   6092      1     65     16      0.1000E-01       62.50    
   6093      1     65     17      0.1000E-01       62.50    
   6094      1     65     18      0.1000E-01       62.50    
   6095      1     65     19      0.1000E-01       62.50    
   6096      1     65     30      0.1000E-01       62.50    
   6097      1     65     31      0.1000E-01       62.50    
   6098      1     65     32      0.1000E-01       62.50    
   6099      1     65     33      0.1000E-01       62.50    
   6100      1     65    102      0.1000E-01       62.50    
   6101      1     65    103      0.1000E-01       62.50    
   6102      1     65    104      0.1000E-01       62.50    
   6103      1     65    105      0.1000E-01       62.50    
   6104      1     65    106      0.1000E-01       62.50    
   6105      1     65    107      0.1000E-01       62.50    
   6106      1     65    108      0.1000E-01       62.50    
   6107      1     65    109      0.1000E-01       62.50    
   6108      1     65    110      0.1000E-01       62.50    
   6109      1     65    111      0.1000E-01       62.50    
   6110      1     65    112      0.1000E-01       62.50    
   6111      1     65    113      0.1000E-01       62.50    
   6112      1     65    114      0.1000E-01       62.50    
   6113      1     65    115      0.1000E-01       62.50    
   6114      1     65    116      0.1000E-01       62.50    
   6115      1     65    117      0.1000E-01       62.50    
   6116      1     65    118      0.1000E-01       62.50    
   6117      1     65    119      0.1000E-01       62.50    
   6118      1     65    120      0.1000E-01       62.50    
   6119      1     65    121      0.1000E-01       62.50    
   6120      1     65    122      0.1000E-01       62.50    
   6121      1     65    123      0.1000E-01       62.50    
   6122      1     65    124      0.1000E-01       62.50    
   6123      1     66      2      0.1000E-01       62.50    
   6124      1     66      3      0.1000E-01       62.50    
   6125      1     66      4      0.1000E-01       62.50    
   6126      1     66      5      0.1000E-01       62.50    
   6127      1     66      6      0.1000E-01       62.50    
   6128      1     66      7      0.1000E-01       62.50    
   6129      1     66      8      0.1000E-01       62.50    
   6130      1     66      9      0.1000E-01       62.50    
   6131      1     66     10      0.1000E-01       62.50    
   6132      1     66     11      0.1000E-01       62.50    
   6133      1     66     12      0.1000E-01       62.50    
   6134      1     66     13      0.1000E-01       62.50    
   6135      1     66     14      0.1000E-01       62.50    
   6136      1     66     15      0.1000E-01       62.50    
   6137      1     66     16      0.1000E-01       62.50    
   6138      1     66     17      0.1000E-01       62.50    
   6139      1     66     18      0.1000E-01       62.50    
   6140      1     66     19      0.1000E-01       62.50    
   6141      1     66     20      0.1000E-01       62.50    
   6142      1     66     21      0.1000E-01       62.50    
   6143      1     66     29      0.1000E-01       62.50    
   6144      1     66     30      0.1000E-01       62.50    
   6145      1     66     31      0.1000E-01       62.50    
   6146      1     66     32      0.1000E-01       62.50    
   6147      1     66     33      0.1000E-01       62.50    
   6148      1     66    100      0.1000E-01       62.50    
   6149      1     66    101      0.1000E-01       62.50    
   6150      1     66    102      0.1000E-01       62.50    
   6151      1     66    103      0.1000E-01       62.50    
   6152      1     66    104      0.1000E-01       62.50    
   6153      1     66    105      0.1000E-01       62.50    
   6154      1     66    106      0.1000E-01       62.50    
   6155      1     66    107      0.1000E-01       62.50    
   6156      1     66    108      0.1000E-01       62.50    
   6157      1     66    109      0.1000E-01       62.50    
   6158      1     66    110      0.1000E-01       62.50    
   6159      1     66    111      0.1000E-01       62.50    
   6160      1     66    112      0.1000E-01       62.50    
   6161      1     66    113      0.1000E-01       62.50    
   6162      1     66    114      0.1000E-01       62.50    
   6163      1     66    115      0.1000E-01       62.50    
   6164      1     66    116      0.1000E-01       62.50    
   6165      1     66    117      0.1000E-01       62.50    
   6166      1     66    118      0.1000E-01       62.50    
   6167      1     66    119      0.1000E-01       62.50    
   6168      1     66    120      0.1000E-01       62.50    
   6169      1     66    121      0.1000E-01       62.50    
   6170      1     66    122      0.1000E-01       62.50    
   6171      1     67      2      0.1000E-01       62.50    
   6172      1     67      3      0.1000E-01       62.50    
   6173      1     67      4      0.1000E-01       62.50    
   6174      1     67      5      0.1000E-01       62.50    
   6175      1     67      6      0.1000E-01       62.50    
   6176      1     67      7      0.1000E-01       62.50    
   6177      1     67      8      0.1000E-01       62.50    
   6178      1     67      9      0.1000E-01       62.50    
   6179      1     67     10      0.1000E-01       62.50    
   6180      1     67     11      0.1000E-01       62.50    
   6181      1     67     12      0.1000E-01       62.50    
   6182      1     67     13      0.1000E-01       62.50    
   6183      1     67     14      0.1000E-01       62.50    
   6184      1     67     15      0.1000E-01       62.50    
   6185      1     67     16      0.1000E-01       62.50    
   6186      1     67     17      0.1000E-01       62.50    
   6187      1     67     18      0.1000E-01       62.50    
   6188      1     67     19      0.1000E-01       62.50    
   6189      1     67     20      0.1000E-01       62.50    
   6190      1     67     21      0.1000E-01       62.50    
   6191      1     67     22      0.1000E-01       62.50    
   6192      1     67     23      0.1000E-01       62.50    
   6193      1     67     28      0.1000E-01       62.50    
   6194      1     67     29      0.1000E-01       62.50    
   6195      1     67     30      0.1000E-01       62.50    
   6196      1     67     31      0.1000E-01       62.50    
   6197      1     67     32      0.1000E-01       62.50    
   6198      1     67     33      0.1000E-01       62.50    
   6199      1     67     98      0.1000E-01       62.50    
   6200      1     67     99      0.1000E-01       62.50    
   6201      1     67    100      0.1000E-01       62.50    
   6202      1     67    101      0.1000E-01       62.50    
   6203      1     67    102      0.1000E-01       62.50    
   6204      1     67    103      0.1000E-01       62.50    
   6205      1     67    104      0.1000E-01       62.50    
   6206      1     67    105      0.1000E-01       62.50    
   6207      1     67    106      0.1000E-01       62.50    
   6208      1     67    107      0.1000E-01       62.50    
   6209      1     67    108      0.1000E-01       62.50    
   6210      1     67    109      0.1000E-01       62.50    
   6211      1     67    110      0.1000E-01       62.50    
   6212      1     67    111      0.1000E-01       62.50    
   6213      1     67    112      0.1000E-01       62.50    
   6214      1     67    113      0.1000E-01       62.50    
   6215      1     67    114      0.1000E-01       62.50    
   6216      1     67    115      0.1000E-01       62.50    
   6217      1     67    116      0.1000E-01       62.50    
   6218      1     67    117      0.1000E-01       62.50    
   6219      1     67    118      0.1000E-01       62.50    
   6220      1     67    119      0.1000E-01       62.50    
   6221      1     67    120      0.1000E-01       62.50    
   6222      1     68      2      0.1000E-01       62.50    
   6223      1     68      3      0.1000E-01       62.50    
   6224      1     68      4      0.1000E-01       62.50    
   6225      1     68      5      0.1000E-01       62.50    
   6226      1     68      6      0.1000E-01       62.50    
   6227      1     68      7      0.1000E-01       62.50    
   6228      1     68      8      0.1000E-01       62.50    
   6229      1     68      9      0.1000E-01       62.50    
   6230      1     68     10      0.1000E-01       62.50    
   6231      1     68     11      0.1000E-01       62.50    
   6232      1     68     12      0.1000E-01       62.50    
   6233      1     68     13      0.1000E-01       62.50    
   6234      1     68     14      0.1000E-01       62.50    
   6235      1     68     15      0.1000E-01       62.50    
   6236      1     68     16      0.1000E-01       62.50    
   6237      1     68     17      0.1000E-01       62.50    
   6238      1     68     18      0.1000E-01       62.50    
   6239      1     68     19      0.1000E-01       62.50    
   6240      1     68     20      0.1000E-01       62.50    
   6241      1     68     21      0.1000E-01       62.50    
   6242      1     68     22      0.1000E-01       62.50    
   6243      1     68     23      0.1000E-01       62.50    
   6244      1     68     24      0.1000E-01       62.50    
   6245      1     68     25      0.1000E-01       62.50    
   6246      1     68     26      0.1000E-01       62.50    
   6247      1     68     27      0.1000E-01       62.50    
   6248      1     68     28      0.1000E-01       62.50    
   6249      1     68     29      0.1000E-01       62.50    
   6250      1     68     30      0.1000E-01       62.50    
   6251      1     68     31      0.1000E-01       62.50    
   6252      1     68     32      0.1000E-01       62.50    
   6253      1     68     33      0.1000E-01       62.50    
   6254      1     68     34      0.1000E-01       62.50    
   6255      1     68     36      0.1000E-01       62.50    
   6256      1     68     37      0.1000E-01       62.50    
   6257      1     68     40      0.1000E-01       62.50    
   6258      1     68     41      0.1000E-01       62.50    
   6259      1     68     97      0.1000E-01       62.50    
   6260      1     68     98      0.1000E-01       62.50    
   6261      1     68     99      0.1000E-01       62.50    
   6262      1     68    100      0.1000E-01       62.50    
   6263      1     68    101      0.1000E-01       62.50    
   6264      1     68    102      0.1000E-01       62.50    
   6265      1     68    103      0.1000E-01       62.50    
   6266      1     68    104      0.1000E-01       62.50    
   6267      1     68    105      0.1000E-01       62.50    
   6268      1     68    106      0.1000E-01       62.50    
   6269      1     68    107      0.1000E-01       62.50    
   6270      1     68    108      0.1000E-01       62.50    
   6271      1     68    109      0.1000E-01       62.50    
   6272      1     68    110      0.1000E-01       62.50    
   6273      1     68    111      0.1000E-01       62.50    
   6274      1     68    112      0.1000E-01       62.50    
   6275      1     68    113      0.1000E-01       62.50    
   6276      1     68    114      0.1000E-01       62.50    
   6277      1     68    115      0.1000E-01       62.50    
   6278      1     68    116      0.1000E-01       62.50    
   6279      1     68    117      0.1000E-01       62.50    
   6280      1     69      2      0.1000E-01       62.50    
   6281      1     69      3      0.1000E-01       62.50    
   6282      1     69      4      0.1000E-01       62.50    
   6283      1     69      5      0.1000E-01       62.50    
   6284      1     69      6      0.1000E-01       62.50    
   6285      1     69      7      0.1000E-01       62.50    
   6286      1     69      8      0.1000E-01       62.50    
   6287      1     69      9      0.1000E-01       62.50    
   6288      1     69     10      0.1000E-01       62.50    
   6289      1     69     11      0.1000E-01       62.50    
   6290      1     69     12      0.1000E-01       62.50    
   6291      1     69     13      0.1000E-01       62.50    
   6292      1     69     14      0.1000E-01       62.50    
   6293      1     69     15      0.1000E-01       62.50    
   6294      1     69     16      0.1000E-01       62.50    
   6295      1     69     17      0.1000E-01       62.50    
   6296      1     69     18      0.1000E-01       62.50    
   6297      1     69     19      0.1000E-01       62.50    
   6298      1     69     20      0.1000E-01       62.50    
   6299      1     69     21      0.1000E-01       62.50    
   6300      1     69     22      0.1000E-01       62.50    
   6301      1     69     23      0.1000E-01       62.50    
   6302      1     69     24      0.1000E-01       62.50    
   6303      1     69     25      0.1000E-01       62.50    
   6304      1     69     26      0.1000E-01       62.50    
   6305      1     69     27      0.1000E-01       62.50    
   6306      1     69     28      0.1000E-01       62.50    
   6307      1     69     29      0.1000E-01       62.50    
   6308      1     69     30      0.1000E-01       62.50    
   6309      1     69     31      0.1000E-01       62.50    
   6310      1     69     32      0.1000E-01       62.50    
   6311      1     69     33      0.1000E-01       62.50    
   6312      1     69     34      0.1000E-01       62.50    
   6313      1     69     35      0.1000E-01       62.50    
   6314      1     69     36      0.1000E-01       62.50    
   6315      1     69     37      0.1000E-01       62.50    
   6316      1     69     38      0.1000E-01       62.50    
   6317      1     69     39      0.1000E-01       62.50    
   6318      1     69     40      0.1000E-01       62.50    
   6319      1     69     41      0.1000E-01       62.50    
   6320      1     69     95      0.1000E-01       62.50    
   6321      1     69     96      0.1000E-01       62.50    
   6322      1     69     97      0.1000E-01       62.50    
   6323      1     69     98      0.1000E-01       62.50    
   6324      1     69     99      0.1000E-01       62.50    
   6325      1     69    100      0.1000E-01       62.50    
   6326      1     69    101      0.1000E-01       62.50    
   6327      1     69    102      0.1000E-01       62.50    
   6328      1     69    103      0.1000E-01       62.50    
   6329      1     69    104      0.1000E-01       62.50    
   6330      1     69    105      0.1000E-01       62.50    
   6331      1     69    106      0.1000E-01       62.50    
   6332      1     69    107      0.1000E-01       62.50    
   6333      1     69    108      0.1000E-01       62.50    
   6334      1     69    109      0.1000E-01       62.50    
   6335      1     69    110      0.1000E-01       62.50    
   6336      1     69    111      0.1000E-01       62.50    
   6337      1     69    112      0.1000E-01       62.50    
   6338      1     69    113      0.1000E-01       62.50    
   6339      1     69    114      0.1000E-01       62.50    
   6340      1     70      2      0.1000E-01       62.50    
   6341      1     70      3      0.1000E-01       62.50    
   6342      1     70      4      0.1000E-01       62.50    
   6343      1     70      5      0.1000E-01       62.50    
   6344      1     70      6      0.1000E-01       62.50    
   6345      1     70      7      0.1000E-01       62.50    
   6346      1     70      8      0.1000E-01       62.50    
   6347      1     70      9      0.1000E-01       62.50    
   6348      1     70     10      0.1000E-01       62.50    
   6349      1     70     11      0.1000E-01       62.50    
   6350      1     70     12      0.1000E-01       62.50    
   6351      1     70     13      0.1000E-01       62.50    
   6352      1     70     14      0.1000E-01       62.50    
   6353      1     70     15      0.1000E-01       62.50    
   6354      1     70     16      0.1000E-01       62.50    
   6355      1     70     17      0.1000E-01       62.50    
   6356      1     70     18      0.1000E-01       62.50    
   6357      1     70     19      0.1000E-01       62.50    
   6358      1     70     20      0.1000E-01       62.50    
   6359      1     70     21      0.1000E-01       62.50    
   6360      1     70     22      0.1000E-01       62.50    
   6361      1     70     23      0.1000E-01       62.50    
   6362      1     70     24      0.1000E-01       62.50    
   6363      1     70     25      0.1000E-01       62.50    
   6364      1     70     26      0.1000E-01       62.50    
   6365      1     70     27      0.1000E-01       62.50    
   6366      1     70     28      0.1000E-01       62.50    
   6367      1     70     29      0.1000E-01       62.50    
   6368      1     70     30      0.1000E-01       62.50    
   6369      1     70     31      0.1000E-01       62.50    
   6370      1     70     32      0.1000E-01       62.50    
   6371      1     70     33      0.1000E-01       62.50    
   6372      1     70     34      0.1000E-01       62.50    
   6373      1     70     35      0.1000E-01       62.50    
   6374      1     70     36      0.1000E-01       62.50    
   6375      1     70     37      0.1000E-01       62.50    
   6376      1     70     38      0.1000E-01       62.50    
   6377      1     70     39      0.1000E-01       62.50    
   6378      1     70     40      0.1000E-01       62.50    
   6379      1     70     41      0.1000E-01       62.50    
   6380      1     70     42      0.1000E-01       62.50    
   6381      1     70     43      0.1000E-01       62.50    
   6382      1     70     44      0.1000E-01       62.50    
   6383      1     70     94      0.1000E-01       62.50    
   6384      1     70     95      0.1000E-01       62.50    
   6385      1     70     96      0.1000E-01       62.50    
   6386      1     70     97      0.1000E-01       62.50    
   6387      1     70     98      0.1000E-01       62.50    
   6388      1     70     99      0.1000E-01       62.50    
   6389      1     70    100      0.1000E-01       62.50    
   6390      1     70    101      0.1000E-01       62.50    
   6391      1     70    102      0.1000E-01       62.50    
   6392      1     70    103      0.1000E-01       62.50    
   6393      1     70    104      0.1000E-01       62.50    
   6394      1     70    105      0.1000E-01       62.50    
   6395      1     70    106      0.1000E-01       62.50    
   6396      1     70    107      0.1000E-01       62.50    
   6397      1     70    108      0.1000E-01       62.50    
   6398      1     70    109      0.1000E-01       62.50    
   6399      1     70    110      0.1000E-01       62.50    
   6400      1     70    111      0.1000E-01       62.50    
   6401      1     71      2      0.1000E-01       62.50    
   6402      1     71      3      0.1000E-01       62.50    
   6403      1     71      4      0.1000E-01       62.50    
   6404      1     71      5      0.1000E-01       62.50    
   6405      1     71      6      0.1000E-01       62.50    
   6406      1     71      7      0.1000E-01       62.50    
   6407      1     71      8      0.1000E-01       62.50    
   6408      1     71      9      0.1000E-01       62.50    
   6409      1     71     10      0.1000E-01       62.50    
   6410      1     71     11      0.1000E-01       62.50    
   6411      1     71     12      0.1000E-01       62.50    
   6412      1     71     13      0.1000E-01       62.50    
   6413      1     71     14      0.1000E-01       62.50    
   6414      1     71     15      0.1000E-01       62.50    
   6415      1     71     16      0.1000E-01       62.50    
   6416      1     71     17      0.1000E-01       62.50    
   6417      1     71     18      0.1000E-01       62.50    
   6418      1     71     19      0.1000E-01       62.50    
   6419      1     71     20      0.1000E-01       62.50    
   6420      1     71     21      0.1000E-01       62.50    
   6421      1     71     22      0.1000E-01       62.50    
   6422      1     71     23      0.1000E-01       62.50    
   6423      1     71     24      0.1000E-01       62.50    
   6424      1     71     25      0.1000E-01       62.50    
   6425      1     71     26      0.1000E-01       62.50    
   6426      1     71     27      0.1000E-01       62.50    
   6427      1     71     28      0.1000E-01       62.50    
   6428      1     71     29      0.1000E-01       62.50    
   6429      1     71     30      0.1000E-01       62.50    
   6430      1     71     31      0.1000E-01       62.50    
   6431      1     71     32      0.1000E-01       62.50    
   6432      1     71     33      0.1000E-01       62.50    
   6433      1     71     34      0.1000E-01       62.50    
   6434      1     71     35      0.1000E-01       62.50    
   6435      1     71     36      0.1000E-01       62.50    
   6436      1     71     37      0.1000E-01       62.50    
   6437      1     71     38      0.1000E-01       62.50    
   6438      1     71     39      0.1000E-01       62.50    
   6439      1     71     40      0.1000E-01       62.50    
   6440      1     71     41      0.1000E-01       62.50    
   6441      1     71     42      0.1000E-01       62.50    
   6442      1     71     43      0.1000E-01       62.50    
   6443      1     71     44      0.1000E-01       62.50    
   6444      1     71     45      0.1000E-01       62.50    
   6445      1     71     46      0.1000E-01       62.50    
   6446      1     71     93      0.1000E-01       62.50    
   6447      1     71     94      0.1000E-01       62.50    
   6448      1     71     95      0.1000E-01       62.50    
   6449      1     71     96      0.1000E-01       62.50    
   6450      1     71     97      0.1000E-01       62.50    
   6451      1     71     98      0.1000E-01       62.50    
   6452      1     71     99      0.1000E-01       62.50    
   6453      1     71    100      0.1000E-01       62.50    
   6454      1     71    101      0.1000E-01       62.50    
   6455      1     71    102      0.1000E-01       62.50    
   6456      1     71    103      0.1000E-01       62.50    
   6457      1     71    104      0.1000E-01       62.50    
   6458      1     71    105      0.1000E-01       62.50    
   6459      1     71    106      0.1000E-01       62.50    
   6460      1     71    107      0.1000E-01       62.50    
   6461      1     71    108      0.1000E-01       62.50    
   6462      1     72      2      0.1000E-01       62.50    
   6463      1     72      3      0.1000E-01       62.50    
   6464      1     72      4      0.1000E-01       62.50    
   6465      1     72      5      0.1000E-01       62.50    
   6466      1     72      6      0.1000E-01       62.50    
   6467      1     72      7      0.1000E-01       62.50    
   6468      1     72      8      0.1000E-01       62.50    
   6469      1     72      9      0.1000E-01       62.50    
   6470      1     72     10      0.1000E-01       62.50    
   6471      1     72     11      0.1000E-01       62.50    
   6472      1     72     12      0.1000E-01       62.50    
   6473      1     72     13      0.1000E-01       62.50    
   6474      1     72     14      0.1000E-01       62.50    
   6475      1     72     15      0.1000E-01       62.50    
   6476      1     72     16      0.1000E-01       62.50    
   6477      1     72     17      0.1000E-01       62.50    
   6478      1     72     18      0.1000E-01       62.50    
   6479      1     72     19      0.1000E-01       62.50    
   6480      1     72     20      0.1000E-01       62.50    
   6481      1     72     21      0.1000E-01       62.50    
   6482      1     72     22      0.1000E-01       62.50    
   6483      1     72     23      0.1000E-01       62.50    
   6484      1     72     24      0.1000E-01       62.50    
   6485      1     72     25      0.1000E-01       62.50    
   6486      1     72     26      0.1000E-01       62.50    
   6487      1     72     27      0.1000E-01       62.50    
   6488      1     72     28      0.1000E-01       62.50    
   6489      1     72     29      0.1000E-01       62.50    
   6490      1     72     30      0.1000E-01       62.50    
   6491      1     72     31      0.1000E-01       62.50    
   6492      1     72     32      0.1000E-01       62.50    
   6493      1     72     33      0.1000E-01       62.50    
   6494      1     72     34      0.1000E-01       62.50    
   6495      1     72     35      0.1000E-01       62.50    
   6496      1     72     36      0.1000E-01       62.50    
   6497      1     72     37      0.1000E-01       62.50    
   6498      1     72     38      0.1000E-01       62.50    
   6499      1     72     39      0.1000E-01       62.50    
   6500      1     72     40      0.1000E-01       62.50    
   6501      1     72     41      0.1000E-01       62.50    
   6502      1     72     42      0.1000E-01       62.50    
   6503      1     72     43      0.1000E-01       62.50    
   6504      1     72     44      0.1000E-01       62.50    
   6505      1     72     45      0.1000E-01       62.50    
   6506      1     72     46      0.1000E-01       62.50    
   6507      1     72     90      0.1000E-01       62.50    
   6508      1     72     91      0.1000E-01       62.50    
   6509      1     72     92      0.1000E-01       62.50    
   6510      1     72     93      0.1000E-01       62.50    
   6511      1     72     94      0.1000E-01       62.50    
   6512      1     72     95      0.1000E-01       62.50    
   6513      1     72     96      0.1000E-01       62.50    
   6514      1     72     97      0.1000E-01       62.50    
   6515      1     72     98      0.1000E-01       62.50    
   6516      1     72     99      0.1000E-01       62.50    
   6517      1     72    100      0.1000E-01       62.50    
   6518      1     72    101      0.1000E-01       62.50    
   6519      1     72    102      0.1000E-01       62.50    
   6520      1     72    103      0.1000E-01       62.50    
   6521      1     72    104      0.1000E-01       62.50    
   6522      1     72    105      0.1000E-01       62.50    
   6523      1     72    106      0.1000E-01       62.50    
   6524      1     73      2      0.1000E-01       62.50    
   6525      1     73      3      0.1000E-01       62.50    
   6526      1     73      4      0.1000E-01       62.50    
   6527      1     73      5      0.1000E-01       62.50    
   6528      1     73      6      0.1000E-01       62.50    
   6529      1     73      7      0.1000E-01       62.50    
   6530      1     73      8      0.1000E-01       62.50    
   6531      1     73      9      0.1000E-01       62.50    
   6532      1     73     10      0.1000E-01       62.50    
   6533      1     73     11      0.1000E-01       62.50    
   6534      1     73     12      0.1000E-01       62.50    
   6535      1     73     13      0.1000E-01       62.50    
   6536      1     73     14      0.1000E-01       62.50    
   6537      1     73     15      0.1000E-01       62.50    
   6538      1     73     16      0.1000E-01       62.50    
   6539      1     73     17      0.1000E-01       62.50    
   6540      1     73     18      0.1000E-01       62.50    
   6541      1     73     19      0.1000E-01       62.50    
   6542      1     73     20      0.1000E-01       62.50    
   6543      1     73     21      0.1000E-01       62.50    
   6544      1     73     22      0.1000E-01       62.50    
   6545      1     73     23      0.1000E-01       62.50    
   6546      1     73     24      0.1000E-01       62.50    
   6547      1     73     25      0.1000E-01       62.50    
   6548      1     73     26      0.1000E-01       62.50    
   6549      1     73     27      0.1000E-01       62.50    
   6550      1     73     28      0.1000E-01       62.50    
   6551      1     73     29      0.1000E-01       62.50    
   6552      1     73     30      0.1000E-01       62.50    
   6553      1     73     31      0.1000E-01       62.50    
   6554      1     73     32      0.1000E-01       62.50    
   6555      1     73     33      0.1000E-01       62.50    
   6556      1     73     34      0.1000E-01       62.50    
   6557      1     73     35      0.1000E-01       62.50    
   6558      1     73     36      0.1000E-01       62.50    
   6559      1     73     37      0.1000E-01       62.50    
   6560      1     73     38      0.1000E-01       62.50    
   6561      1     73     39      0.1000E-01       62.50    
   6562      1     73     40      0.1000E-01       62.50    
   6563      1     73     41      0.1000E-01       62.50    
   6564      1     73     42      0.1000E-01       62.50    
   6565      1     73     43      0.1000E-01       62.50    
   6566      1     73     44      0.1000E-01       62.50    
   6567      1     73     45      0.1000E-01       62.50    
   6568      1     73     46      0.1000E-01       62.50    
   6569      1     73     89      0.1000E-01       62.50    
   6570      1     73     90      0.1000E-01       62.50    
   6571      1     73     91      0.1000E-01       62.50    
   6572      1     73     92      0.1000E-01       62.50    
   6573      1     73     93      0.1000E-01       62.50    
   6574      1     73     94      0.1000E-01       62.50    
   6575      1     73     95      0.1000E-01       62.50    
   6576      1     73     96      0.1000E-01       62.50    
   6577      1     73     97      0.1000E-01       62.50    
   6578      1     73     98      0.1000E-01       62.50    
   6579      1     73     99      0.1000E-01       62.50    
   6580      1     73    100      0.1000E-01       62.50    
   6581      1     73    101      0.1000E-01       62.50    
   6582      1     73    102      0.1000E-01       62.50    
   6583      1     73    103      0.1000E-01       62.50    
   6584      1     74      2      0.1000E-01       62.50    
   6585      1     74      3      0.1000E-01       62.50    
   6586      1     74      4      0.1000E-01       62.50    
   6587      1     74      5      0.1000E-01       62.50    
   6588      1     74      6      0.1000E-01       62.50    
   6589      1     74      7      0.1000E-01       62.50    
   6590      1     74      8      0.1000E-01       62.50    
   6591      1     74      9      0.1000E-01       62.50    
   6592      1     74     10      0.1000E-01       62.50    
   6593      1     74     11      0.1000E-01       62.50    
   6594      1     74     12      0.1000E-01       62.50    
   6595      1     74     13      0.1000E-01       62.50    
   6596      1     74     14      0.1000E-01       62.50    
   6597      1     74     15      0.1000E-01       62.50    
   6598      1     74     16      0.1000E-01       62.50    
   6599      1     74     17      0.1000E-01       62.50    
   6600      1     74     18      0.1000E-01       62.50    
   6601      1     74     19      0.1000E-01       62.50    
   6602      1     74     20      0.1000E-01       62.50    
   6603      1     74     21      0.1000E-01       62.50    
   6604      1     74     22      0.1000E-01       62.50    
   6605      1     74     23      0.1000E-01       62.50    
   6606      1     74     24      0.1000E-01       62.50    
   6607      1     74     25      0.1000E-01       62.50    
   6608      1     74     26      0.1000E-01       62.50    
   6609      1     74     27      0.1000E-01       62.50    
   6610      1     74     28      0.1000E-01       62.50    
   6611      1     74     29      0.1000E-01       62.50    
   6612      1     74     30      0.1000E-01       62.50    
   6613      1     74     31      0.1000E-01       62.50    
   6614      1     74     32      0.1000E-01       62.50    
   6615      1     74     33      0.1000E-01       62.50    
   6616      1     74     34      0.1000E-01       62.50    
   6617      1     74     35      0.1000E-01       62.50    
   6618      1     74     36      0.1000E-01       62.50    
   6619      1     74     37      0.1000E-01       62.50    
   6620      1     74     38      0.1000E-01       62.50    
   6621      1     74     39      0.1000E-01       62.50    
   6622      1     74     40      0.1000E-01       62.50    
   6623      1     74     41      0.1000E-01       62.50    
   6624      1     74     42      0.1000E-01       62.50    
   6625      1     74     43      0.1000E-01       62.50    
   6626      1     74     44      0.1000E-01       62.50    
   6627      1     74     45      0.1000E-01       62.50    
   6628      1     74     46      0.1000E-01       62.50    
   6629      1     74     88      0.1000E-01       62.50    
   6630      1     74     89      0.1000E-01       62.50    
   6631      1     74     90      0.1000E-01       62.50    
   6632      1     74     91      0.1000E-01       62.50    
   6633      1     74     92      0.1000E-01       62.50    
   6634      1     74     93      0.1000E-01       62.50    
   6635      1     74     94      0.1000E-01       62.50    
   6636      1     74     95      0.1000E-01       62.50    
   6637      1     74     96      0.1000E-01       62.50    
   6638      1     74     97      0.1000E-01       62.50    
   6639      1     74     98      0.1000E-01       62.50    
   6640      1     74     99      0.1000E-01       62.50    
   6641      1     74    100      0.1000E-01       62.50    
   6642      1     75      2      0.1000E-01       62.50    
   6643      1     75      3      0.1000E-01       62.50    
   6644      1     75      4      0.1000E-01       62.50    
   6645      1     75      5      0.1000E-01       62.50    
   6646      1     75      6      0.1000E-01       62.50    
   6647      1     75      7      0.1000E-01       62.50    
   6648      1     75      8      0.1000E-01       62.50    
   6649      1     75      9      0.1000E-01       62.50    
   6650      1     75     10      0.1000E-01       62.50    
   6651      1     75     11      0.1000E-01       62.50    
   6652      1     75     12      0.1000E-01       62.50    
   6653      1     75     13      0.1000E-01       62.50    
   6654      1     75     14      0.1000E-01       62.50    
   6655      1     75     15      0.1000E-01       62.50    
   6656      1     75     16      0.1000E-01       62.50    
   6657      1     75     17      0.1000E-01       62.50    
   6658      1     75     18      0.1000E-01       62.50    
   6659      1     75     19      0.1000E-01       62.50    
   6660      1     75     20      0.1000E-01       62.50    
   6661      1     75     21      0.1000E-01       62.50    
   6662      1     75     22      0.1000E-01       62.50    
   6663      1     75     23      0.1000E-01       62.50    
   6664      1     75     24      0.1000E-01       62.50    
   6665      1     75     25      0.1000E-01       62.50    
   6666      1     75     26      0.1000E-01       62.50    
   6667      1     75     27      0.1000E-01       62.50    
   6668      1     75     28      0.1000E-01       62.50    
   6669      1     75     29      0.1000E-01       62.50    
   6670      1     75     30      0.1000E-01       62.50    
   6671      1     75     31      0.1000E-01       62.50    
   6672      1     75     32      0.1000E-01       62.50    
   6673      1     75     33      0.1000E-01       62.50    
   6674      1     75     34      0.1000E-01       62.50    
   6675      1     75     35      0.1000E-01       62.50    
   6676      1     75     36      0.1000E-01       62.50    
   6677      1     75     37      0.1000E-01       62.50    
   6678      1     75     38      0.1000E-01       62.50    
   6679      1     75     39      0.1000E-01       62.50    
   6680      1     75     40      0.1000E-01       62.50    
   6681      1     75     41      0.1000E-01       62.50    
   6682      1     75     42      0.1000E-01       62.50    
   6683      1     75     43      0.1000E-01       62.50    
   6684      1     75     44      0.1000E-01       62.50    
   6685      1     75     45      0.1000E-01       62.50    
   6686      1     75     46      0.1000E-01       62.50    
   6687      1     75     88      0.1000E-01       62.50    
   6688      1     75     89      0.1000E-01       62.50    
   6689      1     75     90      0.1000E-01       62.50    
   6690      1     75     91      0.1000E-01       62.50    
   6691      1     75     92      0.1000E-01       62.50    
   6692      1     75     93      0.1000E-01       62.50    
   6693      1     75     94      0.1000E-01       62.50    
   6694      1     75     95      0.1000E-01       62.50    
   6695      1     75     96      0.1000E-01       62.50    
   6696      1     75     97      0.1000E-01       62.50    
   6697      1     76      2      0.1000E-01       62.50    
   6698      1     76      3      0.1000E-01       62.50    
   6699      1     76      4      0.1000E-01       62.50    
   6700      1     76      5      0.1000E-01       62.50    
   6701      1     76      6      0.1000E-01       62.50    
   6702      1     76      7      0.1000E-01       62.50    
   6703      1     76      8      0.1000E-01       62.50    
   6704      1     76      9      0.1000E-01       62.50    
   6705      1     76     10      0.1000E-01       62.50    
   6706      1     76     11      0.1000E-01       62.50    
   6707      1     76     12      0.1000E-01       62.50    
   6708      1     76     13      0.1000E-01       62.50    
   6709      1     76     14      0.1000E-01       62.50    
   6710      1     76     15      0.1000E-01       62.50    
   6711      1     76     16      0.1000E-01       62.50    
   6712      1     76     17      0.1000E-01       62.50    
   6713      1     76     18      0.1000E-01       62.50    
   6714      1     76     19      0.1000E-01       62.50    
   6715      1     76     20      0.1000E-01       62.50    
   6716      1     76     21      0.1000E-01       62.50    
   6717      1     76     22      0.1000E-01       62.50    
   6718      1     76     23      0.1000E-01       62.50    
   6719      1     76     24      0.1000E-01       62.50    
   6720      1     76     25      0.1000E-01       62.50    
   6721      1     76     26      0.1000E-01       62.50    
   6722      1     76     27      0.1000E-01       62.50    
   6723      1     76     28      0.1000E-01       62.50    
   6724      1     76     29      0.1000E-01       62.50    
   6725      1     76     30      0.1000E-01       62.50    
   6726      1     76     31      0.1000E-01       62.50    
   6727      1     76     32      0.1000E-01       62.50    
   6728      1     76     33      0.1000E-01       62.50    
   6729      1     76     34      0.1000E-01       62.50    
   6730      1     76     35      0.1000E-01       62.50    
   6731      1     76     36      0.1000E-01       62.50    
   6732      1     76     37      0.1000E-01       62.50    
   6733      1     76     38      0.1000E-01       62.50    
   6734      1     76     39      0.1000E-01       62.50    
   6735      1     76     40      0.1000E-01       62.50    
   6736      1     76     41      0.1000E-01       62.50    
   6737      1     76     42      0.1000E-01       62.50    
   6738      1     76     43      0.1000E-01       62.50    
   6739      1     76     44      0.1000E-01       62.50    
   6740      1     76     45      0.1000E-01       62.50    
   6741      1     76     46      0.1000E-01       62.50    
   6742      1     76     89      0.1000E-01       62.50    
   6743      1     76     90      0.1000E-01       62.50    
   6744      1     76     91      0.1000E-01       62.50    
   6745      1     76     92      0.1000E-01       62.50    
   6746      1     76     93      0.1000E-01       62.50    
   6747      1     76     94      0.1000E-01       62.50    
   6748      1     76     95      0.1000E-01       62.50    
   6749      1     76     96      0.1000E-01       62.50    
   6750      1     77      2      0.1000E-01       62.50    
   6751      1     77      3      0.1000E-01       62.50    
   6752      1     77      4      0.1000E-01       62.50    
   6753      1     77      5      0.1000E-01       62.50    
   6754      1     77      6      0.1000E-01       62.50    
   6755      1     77      7      0.1000E-01       62.50    
   6756      1     77      8      0.1000E-01       62.50    
   6757      1     77      9      0.1000E-01       62.50    
   6758      1     77     10      0.1000E-01       62.50    
   6759      1     77     11      0.1000E-01       62.50    
   6760      1     77     12      0.1000E-01       62.50    
   6761      1     77     13      0.1000E-01       62.50    
   6762      1     77     14      0.1000E-01       62.50    
   6763      1     77     15      0.1000E-01       62.50    
   6764      1     77     16      0.1000E-01       62.50    
   6765      1     77     17      0.1000E-01       62.50    
   6766      1     77     18      0.1000E-01       62.50    
   6767      1     77     19      0.1000E-01       62.50    
   6768      1     77     20      0.1000E-01       62.50    
   6769      1     77     21      0.1000E-01       62.50    
   6770      1     77     22      0.1000E-01       62.50    
   6771      1     77     23      0.1000E-01       62.50    
   6772      1     77     24      0.1000E-01       62.50    
   6773      1     77     25      0.1000E-01       62.50    
   6774      1     77     26      0.1000E-01       62.50    
   6775      1     77     27      0.1000E-01       62.50    
   6776      1     77     28      0.1000E-01       62.50    
   6777      1     77     29      0.1000E-01       62.50    
   6778      1     77     30      0.1000E-01       62.50    
   6779      1     77     31      0.1000E-01       62.50    
   6780      1     77     32      0.1000E-01       62.50    
   6781      1     77     33      0.1000E-01       62.50    
   6782      1     77     34      0.1000E-01       62.50    
   6783      1     77     35      0.1000E-01       62.50    
   6784      1     77     36      0.1000E-01       62.50    
   6785      1     77     37      0.1000E-01       62.50    
   6786      1     77     38      0.1000E-01       62.50    
   6787      1     77     39      0.1000E-01       62.50    
   6788      1     77     40      0.1000E-01       62.50    
   6789      1     77     41      0.1000E-01       62.50    
   6790      1     77     42      0.1000E-01       62.50    
   6791      1     77     43      0.1000E-01       62.50    
   6792      1     77     44      0.1000E-01       62.50    
   6793      1     77     45      0.1000E-01       62.50    
   6794      1     77     88      0.1000E-01       62.50    
   6795      1     77     89      0.1000E-01       62.50    
   6796      1     77     90      0.1000E-01       62.50    
   6797      1     77     91      0.1000E-01       62.50    
   6798      1     77     92      0.1000E-01       62.50    
   6799      1     77     93      0.1000E-01       62.50    
   6800      1     77     94      0.1000E-01       62.50    
   6801      1     77     95      0.1000E-01       62.50    
   6802      1     78      2      0.1000E-01       62.50    
   6803      1     78      3      0.1000E-01       62.50    
   6804      1     78      4      0.1000E-01       62.50    
   6805      1     78      5      0.1000E-01       62.50    
   6806      1     78      6      0.1000E-01       62.50    
   6807      1     78      7      0.1000E-01       62.50    
   6808      1     78      8      0.1000E-01       62.50    
   6809      1     78      9      0.1000E-01       62.50    
   6810      1     78     10      0.1000E-01       62.50    
   6811      1     78     11      0.1000E-01       62.50    
   6812      1     78     12      0.1000E-01       62.50    
   6813      1     78     13      0.1000E-01       62.50    
   6814      1     78     14      0.1000E-01       62.50    
   6815      1     78     15      0.1000E-01       62.50    
   6816      1     78     16      0.1000E-01       62.50    
   6817      1     78     17      0.1000E-01       62.50    
   6818      1     78     18      0.1000E-01       62.50    
   6819      1     78     19      0.1000E-01       62.50    
   6820      1     78     20      0.1000E-01       62.50    
   6821      1     78     21      0.1000E-01       62.50    
   6822      1     78     22      0.1000E-01       62.50    
   6823      1     78     23      0.1000E-01       62.50    
   6824      1     78     24      0.1000E-01       62.50    
   6825      1     78     25      0.1000E-01       62.50    
   6826      1     78     26      0.1000E-01       62.50    
   6827      1     78     27      0.1000E-01       62.50    
   6828      1     78     28      0.1000E-01       62.50    
   6829      1     78     29      0.1000E-01       62.50    
   6830      1     78     30      0.1000E-01       62.50    
   6831      1     78     31      0.1000E-01       62.50    
   6832      1     78     32      0.1000E-01       62.50    
   6833      1     78     33      0.1000E-01       62.50    
   6834      1     78     34      0.1000E-01       62.50    
   6835      1     78     35      0.1000E-01       62.50    
   6836      1     78     36      0.1000E-01       62.50    
   6837      1     78     37      0.1000E-01       62.50    
   6838      1     78     38      0.1000E-01       62.50    
   6839      1     78     39      0.1000E-01       62.50    
   6840      1     78     40      0.1000E-01       62.50    
   6841      1     78     41      0.1000E-01       62.50    
   6842      1     78     42      0.1000E-01       62.50    
   6843      1     78     43      0.1000E-01       62.50    
   6844      1     78     44      0.1000E-01       62.50    
   6845      1     78     45      0.1000E-01       62.50    
   6846      1     78     46      0.1000E-01       62.50    
   6847      1     78     87      0.1000E-01       62.50    
   6848      1     78     88      0.1000E-01       62.50    
   6849      1     78     89      0.1000E-01       62.50    
   6850      1     78     90      0.1000E-01       62.50    
   6851      1     78     91      0.1000E-01       62.50    
   6852      1     78     92      0.1000E-01       62.50    
   6853      1     78     93      0.1000E-01       62.50    
   6854      1     78     94      0.1000E-01       62.50    
   6855      1     79      2      0.1000E-01       62.50    
   6856      1     79      3      0.1000E-01       62.50    
   6857      1     79      4      0.1000E-01       62.50    
   6858      1     79      5      0.1000E-01       62.50    
   6859      1     79      6      0.1000E-01       62.50    
   6860      1     79      7      0.1000E-01       62.50    
   6861      1     79      8      0.1000E-01       62.50    
   6862      1     79      9      0.1000E-01       62.50    
   6863      1     79     10      0.1000E-01       62.50    
   6864      1     79     11      0.1000E-01       62.50    
   6865      1     79     12      0.1000E-01       62.50    
   6866      1     79     13      0.1000E-01       62.50    
   6867      1     79     14      0.1000E-01       62.50    
   6868      1     79     15      0.1000E-01       62.50    
   6869      1     79     16      0.1000E-01       62.50    
   6870      1     79     17      0.1000E-01       62.50    
   6871      1     79     18      0.1000E-01       62.50    
   6872      1     79     19      0.1000E-01       62.50    
   6873      1     79     20      0.1000E-01       62.50    
   6874      1     79     21      0.1000E-01       62.50    
   6875      1     79     22      0.1000E-01       62.50    
   6876      1     79     23      0.1000E-01       62.50    
   6877      1     79     24      0.1000E-01       62.50    
   6878      1     79     25      0.1000E-01       62.50    
   6879      1     79     26      0.1000E-01       62.50    
   6880      1     79     27      0.1000E-01       62.50    
   6881      1     79     28      0.1000E-01       62.50    
   6882      1     79     29      0.1000E-01       62.50    
   6883      1     79     30      0.1000E-01       62.50    
   6884      1     79     31      0.1000E-01       62.50    
   6885      1     79     32      0.1000E-01       62.50    
   6886      1     79     33      0.1000E-01       62.50    
   6887      1     79     34      0.1000E-01       62.50    
   6888      1     79     35      0.1000E-01       62.50    
   6889      1     79     36      0.1000E-01       62.50    
   6890      1     79     37      0.1000E-01       62.50    
   6891      1     79     38      0.1000E-01       62.50    
   6892      1     79     39      0.1000E-01       62.50    
   6893      1     79     40      0.1000E-01       62.50    
   6894      1     79     41      0.1000E-01       62.50    
   6895      1     79     42      0.1000E-01       62.50    
   6896      1     79     43      0.1000E-01       62.50    
   6897      1     79     44      0.1000E-01       62.50    
   6898      1     79     45      0.1000E-01       62.50    
   6899      1     79     46      0.1000E-01       62.50    
   6900      1     79     85      0.1000E-01       62.50    
   6901      1     79     86      0.1000E-01       62.50    
   6902      1     79     87      0.1000E-01       62.50    
   6903      1     79     88      0.1000E-01       62.50    
   6904      1     79     89      0.1000E-01       62.50    
   6905      1     79     90      0.1000E-01       62.50    
   6906      1     79     91      0.1000E-01       62.50    
   6907      1     79     92      0.1000E-01       62.50    
   6908      1     79     93      0.1000E-01       62.50    
   6909      1     80      2      0.1000E-01       62.50    
   6910      1     80      3      0.1000E-01       62.50    
   6911      1     80      4      0.1000E-01       62.50    
   6912      1     80      5      0.1000E-01       62.50    
   6913      1     80      6      0.1000E-01       62.50    
   6914      1     80      7      0.1000E-01       62.50    
   6915      1     80      8      0.1000E-01       62.50    
   6916      1     80      9      0.1000E-01       62.50    
   6917      1     80     10      0.1000E-01       62.50    
   6918      1     80     11      0.1000E-01       62.50    
   6919      1     80     12      0.1000E-01       62.50    
   6920      1     80     13      0.1000E-01       62.50    
   6921      1     80     14      0.1000E-01       62.50    
   6922      1     80     15      0.1000E-01       62.50    
   6923      1     80     16      0.1000E-01       62.50    
   6924      1     80     17      0.1000E-01       62.50    
   6925      1     80     18      0.1000E-01       62.50    
   6926      1     80     19      0.1000E-01       62.50    
   6927      1     80     20      0.1000E-01       62.50    
   6928      1     80     21      0.1000E-01       62.50    
   6929      1     80     22      0.1000E-01       62.50    
   6930      1     80     23      0.1000E-01       62.50    
   6931      1     80     24      0.1000E-01       62.50    
   6932      1     80     25      0.1000E-01       62.50    
   6933      1     80     26      0.1000E-01       62.50    
   6934      1     80     27      0.1000E-01       62.50    
   6935      1     80     28      0.1000E-01       62.50    
   6936      1     80     29      0.1000E-01       62.50    
   6937      1     80     30      0.1000E-01       62.50    
   6938      1     80     31      0.1000E-01       62.50    
   6939      1     80     32      0.1000E-01       62.50    
   6940      1     80     33      0.1000E-01       62.50    
   6941      1     80     34      0.1000E-01       62.50    
   6942      1     80     35      0.1000E-01       62.50    
   6943      1     80     36      0.1000E-01       62.50    
   6944      1     80     37      0.1000E-01       62.50    
   6945      1     80     38      0.1000E-01       62.50    
   6946      1     80     39      0.1000E-01       62.50    
   6947      1     80     40      0.1000E-01       62.50    
   6948      1     80     41      0.1000E-01       62.50    
   6949      1     80     42      0.1000E-01       62.50    
   6950      1     80     43      0.1000E-01       62.50    
   6951      1     80     44      0.1000E-01       62.50    
   6952      1     80     45      0.1000E-01       62.50    
   6953      1     80     46      0.1000E-01       62.50    
   6954      1     80     47      0.1000E-01       62.50    
   6955      1     80     84      0.1000E-01       62.50    
   6956      1     80     85      0.1000E-01       62.50    
   6957      1     80     86      0.1000E-01       62.50    
   6958      1     80     87      0.1000E-01       62.50    
   6959      1     80     88      0.1000E-01       62.50    
   6960      1     80     89      0.1000E-01       62.50    
   6961      1     80     90      0.1000E-01       62.50    
   6962      1     80     91      0.1000E-01       62.50    
   6963      1     80     92      0.1000E-01       62.50    
   6964      1     81      2      0.1000E-01       62.50    
   6965      1     81      3      0.1000E-01       62.50    
   6966      1     81      4      0.1000E-01       62.50    
   6967      1     81      5      0.1000E-01       62.50    
   6968      1     81      6      0.1000E-01       62.50    
   6969      1     81      7      0.1000E-01       62.50    
   6970      1     81      8      0.1000E-01       62.50    
   6971      1     81      9      0.1000E-01       62.50    
   6972      1     81     10      0.1000E-01       62.50    
   6973      1     81     11      0.1000E-01       62.50    
   6974      1     81     12      0.1000E-01       62.50    
   6975      1     81     13      0.1000E-01       62.50    
   6976      1     81     14      0.1000E-01       62.50    
   6977      1     81     15      0.1000E-01       62.50    
   6978      1     81     16      0.1000E-01       62.50    
   6979      1     81     17      0.1000E-01       62.50    
   6980      1     81     18      0.1000E-01       62.50    
   6981      1     81     19      0.1000E-01       62.50    
   6982      1     81     20      0.1000E-01       62.50    
   6983      1     81     21      0.1000E-01       62.50    
   6984      1     81     22      0.1000E-01       62.50    
   6985      1     81     23      0.1000E-01       62.50    
   6986      1     81     24      0.1000E-01       62.50    
   6987      1     81     25      0.1000E-01       62.50    
   6988      1     81     26      0.1000E-01       62.50    
   6989      1     81     27      0.1000E-01       62.50    
   6990      1     81     28      0.1000E-01       62.50    
   6991      1     81     29      0.1000E-01       62.50    
   6992      1     81     30      0.1000E-01       62.50    
   6993      1     81     31      0.1000E-01       62.50    
   6994      1     81     32      0.1000E-01       62.50    
   6995      1     81     33      0.1000E-01       62.50    
   6996      1     81     34      0.1000E-01       62.50    
   6997      1     81     35      0.1000E-01       62.50    
   6998      1     81     36      0.1000E-01       62.50    
   6999      1     81     37      0.1000E-01       62.50    
   7000      1     81     38      0.1000E-01       62.50    
   7001      1     81     39      0.1000E-01       62.50    
   7002      1     81     40      0.1000E-01       62.50    
   7003      1     81     41      0.1000E-01       62.50    
   7004      1     81     42      0.1000E-01       62.50    
   7005      1     81     43      0.1000E-01       62.50    
   7006      1     81     44      0.1000E-01       62.50    
   7007      1     81     45      0.1000E-01       62.50    
   7008      1     81     46      0.1000E-01       62.50    
   7009      1     81     47      0.1000E-01       62.50    
   7010      1     81     83      0.1000E-01       62.50    
   7011      1     81     84      0.1000E-01       62.50    
   7012      1     81     85      0.1000E-01       62.50    
   7013      1     81     86      0.1000E-01       62.50    
   7014      1     81     87      0.1000E-01       62.50    
   7015      1     81     88      0.1000E-01       62.50    
   7016      1     81     89      0.1000E-01       62.50    
   7017      1     81     90      0.1000E-01       62.50    
   7018      1     81     91      0.1000E-01       62.50    
   7019      1     81     92      0.1000E-01       62.50    
   7020      1     82      2      0.1000E-01       62.50    
   7021      1     82      3      0.1000E-01       62.50    
   7022      1     82      4      0.1000E-01       62.50    
   7023      1     82      5      0.1000E-01       62.50    
   7024      1     82      6      0.1000E-01       62.50    
   7025      1     82      7      0.1000E-01       62.50    
   7026      1     82      8      0.1000E-01       62.50    
   7027      1     82      9      0.1000E-01       62.50    
   7028      1     82     10      0.1000E-01       62.50    
   7029      1     82     11      0.1000E-01       62.50    
   7030      1     82     12      0.1000E-01       62.50    
   7031      1     82     13      0.1000E-01       62.50    
   7032      1     82     14      0.1000E-01       62.50    
   7033      1     82     15      0.1000E-01       62.50    
   7034      1     82     16      0.1000E-01       62.50    
   7035      1     82     17      0.1000E-01       62.50    
   7036      1     82     18      0.1000E-01       62.50    
   7037      1     82     19      0.1000E-01       62.50    
   7038      1     82     20      0.1000E-01       62.50    
   7039      1     82     21      0.1000E-01       62.50    
   7040      1     82     22      0.1000E-01       62.50    
   7041      1     82     23      0.1000E-01       62.50    
   7042      1     82     24      0.1000E-01       62.50    
   7043      1     82     25      0.1000E-01       62.50    
   7044      1     82     26      0.1000E-01       62.50    
   7045      1     82     27      0.1000E-01       62.50    
   7046      1     82     28      0.1000E-01       62.50    
   7047      1     82     29      0.1000E-01       62.50    
   7048      1     82     30      0.1000E-01       62.50    
   7049      1     82     31      0.1000E-01       62.50    
   7050      1     82     32      0.1000E-01       62.50    
   7051      1     82     33      0.1000E-01       62.50    
   7052      1     82     34      0.1000E-01       62.50    
   7053      1     82     35      0.1000E-01       62.50    
   7054      1     82     36      0.1000E-01       62.50    
   7055      1     82     37      0.1000E-01       62.50    
   7056      1     82     38      0.1000E-01       62.50    
   7057      1     82     39      0.1000E-01       62.50    
   7058      1     82     40      0.1000E-01       62.50    
   7059      1     82     41      0.1000E-01       62.50    
   7060      1     82     42      0.1000E-01       62.50    
   7061      1     82     43      0.1000E-01       62.50    
   7062      1     82     44      0.1000E-01       62.50    
   7063      1     82     45      0.1000E-01       62.50    
   7064      1     82     46      0.1000E-01       62.50    
   7065      1     82     47      0.1000E-01       62.50    
   7066      1     82     83      0.1000E-01       62.50    
   7067      1     82     84      0.1000E-01       62.50    
   7068      1     82     85      0.1000E-01       62.50    
   7069      1     82     86      0.1000E-01       62.50    
   7070      1     82     87      0.1000E-01       62.50    
   7071      1     82     88      0.1000E-01       62.50    
   7072      1     82     89      0.1000E-01       62.50    
   7073      1     82     90      0.1000E-01       62.50    
   7074      1     82     91      0.1000E-01       62.50    
   7075      1     83      2      0.1000E-01       62.50    
   7076      1     83      3      0.1000E-01       62.50    
   7077      1     83      4      0.1000E-01       62.50    
   7078      1     83      5      0.1000E-01       62.50    
   7079      1     83      6      0.1000E-01       62.50    
   7080      1     83      7      0.1000E-01       62.50    
   7081      1     83      8      0.1000E-01       62.50    
   7082      1     83      9      0.1000E-01       62.50    
   7083      1     83     10      0.1000E-01       62.50    
   7084      1     83     11      0.1000E-01       62.50    
   7085      1     83     12      0.1000E-01       62.50    
   7086      1     83     13      0.1000E-01       62.50    
   7087      1     83     14      0.1000E-01       62.50    
   7088      1     83     15      0.1000E-01       62.50    
   7089      1     83     16      0.1000E-01       62.50    
   7090      1     83     17      0.1000E-01       62.50    
   7091      1     83     18      0.1000E-01       62.50    
   7092      1     83     19      0.1000E-01       62.50    
   7093      1     83     20      0.1000E-01       62.50    
   7094      1     83     21      0.1000E-01       62.50    
   7095      1     83     22      0.1000E-01       62.50    
   7096      1     83     23      0.1000E-01       62.50    
   7097      1     83     24      0.1000E-01       62.50    
   7098      1     83     25      0.1000E-01       62.50    
   7099      1     83     26      0.1000E-01       62.50    
   7100      1     83     27      0.1000E-01       62.50    
   7101      1     83     28      0.1000E-01       62.50    
   7102      1     83     29      0.1000E-01       62.50    
   7103      1     83     30      0.1000E-01       62.50    
   7104      1     83     31      0.1000E-01       62.50    
   7105      1     83     32      0.1000E-01       62.50    
   7106      1     83     33      0.1000E-01       62.50    
   7107      1     83     34      0.1000E-01       62.50    
   7108      1     83     35      0.1000E-01       62.50    
   7109      1     83     36      0.1000E-01       62.50    
   7110      1     83     37      0.1000E-01       62.50    
   7111      1     83     38      0.1000E-01       62.50    
   7112      1     83     39      0.1000E-01       62.50    
   7113      1     83     40      0.1000E-01       62.50    
   7114      1     83     41      0.1000E-01       62.50    
   7115      1     83     42      0.1000E-01       62.50    
   7116      1     83     43      0.1000E-01       62.50    
   7117      1     83     44      0.1000E-01       62.50    
   7118      1     83     45      0.1000E-01       62.50    
   7119      1     83     46      0.1000E-01       62.50    
   7120      1     83     47      0.1000E-01       62.50    
   7121      1     83     82      0.1000E-01       62.50    
   7122      1     83     83      0.1000E-01       62.50    
   7123      1     83     84      0.1000E-01       62.50    
   7124      1     83     85      0.1000E-01       62.50    
   7125      1     83     86      0.1000E-01       62.50    
   7126      1     83     87      0.1000E-01       62.50    
   7127      1     83     88      0.1000E-01       62.50    
   7128      1     83     89      0.1000E-01       62.50    
   7129      1     83     90      0.1000E-01       62.50    
   7130      1     84      2      0.1000E-01       62.50    
   7131      1     84      3      0.1000E-01       62.50    
   7132      1     84      4      0.1000E-01       62.50    
   7133      1     84      5      0.1000E-01       62.50    
   7134      1     84      6      0.1000E-01       62.50    
   7135      1     84      7      0.1000E-01       62.50    
   7136      1     84      8      0.1000E-01       62.50    
   7137      1     84      9      0.1000E-01       62.50    
   7138      1     84     10      0.1000E-01       62.50    
   7139      1     84     11      0.1000E-01       62.50    
   7140      1     84     12      0.1000E-01       62.50    
   7141      1     84     13      0.1000E-01       62.50    
   7142      1     84     14      0.1000E-01       62.50    
   7143      1     84     15      0.1000E-01       62.50    
   7144      1     84     16      0.1000E-01       62.50    
   7145      1     84     17      0.1000E-01       62.50    
   7146      1     84     18      0.1000E-01       62.50    
   7147      1     84     19      0.1000E-01       62.50    
   7148      1     84     20      0.1000E-01       62.50    
   7149      1     84     21      0.1000E-01       62.50    
   7150      1     84     22      0.1000E-01       62.50    
   7151      1     84     23      0.1000E-01       62.50    
   7152      1     84     24      0.1000E-01       62.50    
   7153      1     84     25      0.1000E-01       62.50    
   7154      1     84     26      0.1000E-01       62.50    
   7155      1     84     27      0.1000E-01       62.50    
   7156      1     84     28      0.1000E-01       62.50    
   7157      1     84     29      0.1000E-01       62.50    
   7158      1     84     30      0.1000E-01       62.50    
   7159      1     84     31      0.1000E-01       62.50    
   7160      1     84     32      0.1000E-01       62.50    
   7161      1     84     33      0.1000E-01       62.50    
   7162      1     84     34      0.1000E-01       62.50    
   7163      1     84     35      0.1000E-01       62.50    
   7164      1     84     36      0.1000E-01       62.50    
   7165      1     84     37      0.1000E-01       62.50    
   7166      1     84     38      0.1000E-01       62.50    
   7167      1     84     39      0.1000E-01       62.50    
   7168      1     84     40      0.1000E-01       62.50    
   7169      1     84     41      0.1000E-01       62.50    
   7170      1     84     42      0.1000E-01       62.50    
   7171      1     84     43      0.1000E-01       62.50    
   7172      1     84     44      0.1000E-01       62.50    
   7173      1     84     45      0.1000E-01       62.50    
   7174      1     84     46      0.1000E-01       62.50    
   7175      1     84     81      0.1000E-01       62.50    
   7176      1     84     82      0.1000E-01       62.50    
   7177      1     84     83      0.1000E-01       62.50    
   7178      1     84     84      0.1000E-01       62.50    
   7179      1     84     85      0.1000E-01       62.50    
   7180      1     84     86      0.1000E-01       62.50    
   7181      1     84     87      0.1000E-01       62.50    
   7182      1     84     88      0.1000E-01       62.50    
   7183      1     84     89      0.1000E-01       62.50    
   7184      1     85      2      0.1000E-01       62.50    
   7185      1     85      3      0.1000E-01       62.50    
   7186      1     85      4      0.1000E-01       62.50    
   7187      1     85      5      0.1000E-01       62.50    
   7188      1     85      6      0.1000E-01       62.50    
   7189      1     85      7      0.1000E-01       62.50    
   7190      1     85      8      0.1000E-01       62.50    
   7191      1     85      9      0.1000E-01       62.50    
   7192      1     85     10      0.1000E-01       62.50    
   7193      1     85     11      0.1000E-01       62.50    
   7194      1     85     12      0.1000E-01       62.50    
   7195      1     85     13      0.1000E-01       62.50    
   7196      1     85     14      0.1000E-01       62.50    
   7197      1     85     15      0.1000E-01       62.50    
   7198      1     85     16      0.1000E-01       62.50    
   7199      1     85     17      0.1000E-01       62.50    
   7200      1     85     18      0.1000E-01       62.50    
   7201      1     85     19      0.1000E-01       62.50    
   7202      1     85     20      0.1000E-01       62.50    
   7203      1     85     21      0.1000E-01       62.50    
   7204      1     85     22      0.1000E-01       62.50    
   7205      1     85     23      0.1000E-01       62.50    
   7206      1     85     24      0.1000E-01       62.50    
   7207      1     85     25      0.1000E-01       62.50    
   7208      1     85     26      0.1000E-01       62.50    
   7209      1     85     27      0.1000E-01       62.50    
   7210      1     85     28      0.1000E-01       62.50    
   7211      1     85     29      0.1000E-01       62.50    
   7212      1     85     30      0.1000E-01       62.50    
   7213      1     85     31      0.1000E-01       62.50    
   7214      1     85     32      0.1000E-01       62.50    
   7215      1     85     33      0.1000E-01       62.50    
   7216      1     85     34      0.1000E-01       62.50    
   7217      1     85     35      0.1000E-01       62.50    
   7218      1     85     36      0.1000E-01       62.50    
   7219      1     85     37      0.1000E-01       62.50    
   7220      1     85     38      0.1000E-01       62.50    
   7221      1     85     39      0.1000E-01       62.50    
   7222      1     85     40      0.1000E-01       62.50    
   7223      1     85     41      0.1000E-01       62.50    
   7224      1     85     42      0.1000E-01       62.50    
   7225      1     85     43      0.1000E-01       62.50    
   7226      1     85     44      0.1000E-01       62.50    
   7227      1     85     45      0.1000E-01       62.50    
   7228      1     85     46      0.1000E-01       62.50    
   7229      1     85     47      0.1000E-01       62.50    
   7230      1     85     79      0.1000E-01       62.50    
   7231      1     85     80      0.1000E-01       62.50    
   7232      1     85     81      0.1000E-01       62.50    
   7233      1     85     82      0.1000E-01       62.50    
   7234      1     85     83      0.1000E-01       62.50    
   7235      1     85     84      0.1000E-01       62.50    
   7236      1     85     85      0.1000E-01       62.50    
   7237      1     85     86      0.1000E-01       62.50    
   7238      1     85     87      0.1000E-01       62.50    
   7239      1     85     88      0.1000E-01       62.50    
   7240      1     86      2      0.1000E-01       62.50    
   7241      1     86      3      0.1000E-01       62.50    
   7242      1     86      4      0.1000E-01       62.50    
   7243      1     86      5      0.1000E-01       62.50    
   7244      1     86      6      0.1000E-01       62.50    
   7245      1     86      7      0.1000E-01       62.50    
   7246      1     86      8      0.1000E-01       62.50    
   7247      1     86      9      0.1000E-01       62.50    
   7248      1     86     10      0.1000E-01       62.50    
   7249      1     86     11      0.1000E-01       62.50    
   7250      1     86     12      0.1000E-01       62.50    
   7251      1     86     13      0.1000E-01       62.50    
   7252      1     86     14      0.1000E-01       62.50    
   7253      1     86     15      0.1000E-01       62.50    
   7254      1     86     16      0.1000E-01       62.50    
   7255      1     86     17      0.1000E-01       62.50    
   7256      1     86     18      0.1000E-01       62.50    
   7257      1     86     19      0.1000E-01       62.50    
   7258      1     86     20      0.1000E-01       62.50    
   7259      1     86     21      0.1000E-01       62.50    
   7260      1     86     22      0.1000E-01       62.50    
   7261      1     86     23      0.1000E-01       62.50    
   7262      1     86     24      0.1000E-01       62.50    
   7263      1     86     25      0.1000E-01       62.50    
   7264      1     86     26      0.1000E-01       62.50    
   7265      1     86     27      0.1000E-01       62.50    
   7266      1     86     28      0.1000E-01       62.50    
   7267      1     86     29      0.1000E-01       62.50    
   7268      1     86     30      0.1000E-01       62.50    
   7269      1     86     31      0.1000E-01       62.50    
   7270      1     86     32      0.1000E-01       62.50    
   7271      1     86     33      0.1000E-01       62.50    
   7272      1     86     34      0.1000E-01       62.50    
   7273      1     86     35      0.1000E-01       62.50    
   7274      1     86     36      0.1000E-01       62.50    
   7275      1     86     37      0.1000E-01       62.50    
   7276      1     86     38      0.1000E-01       62.50    
   7277      1     86     39      0.1000E-01       62.50    
   7278      1     86     40      0.1000E-01       62.50    
   7279      1     86     41      0.1000E-01       62.50    
   7280      1     86     42      0.1000E-01       62.50    
   7281      1     86     43      0.1000E-01       62.50    
   7282      1     86     44      0.1000E-01       62.50    
   7283      1     86     45      0.1000E-01       62.50    
   7284      1     86     46      0.1000E-01       62.50    
   7285      1     86     47      0.1000E-01       62.50    
   7286      1     86     48      0.1000E-01       62.50    
   7287      1     86     49      0.1000E-01       62.50    
   7288      1     86     50      0.1000E-01       62.50    
   7289      1     86     70      0.1000E-01       62.50    
   7290      1     86     79      0.1000E-01       62.50    
   7291      1     86     80      0.1000E-01       62.50    
   7292      1     86     81      0.1000E-01       62.50    
   7293      1     86     82      0.1000E-01       62.50    
   7294      1     86     83      0.1000E-01       62.50    
   7295      1     86     84      0.1000E-01       62.50    
   7296      1     86     85      0.1000E-01       62.50    
   7297      1     86     86      0.1000E-01       62.50    
   7298      1     86     87      0.1000E-01       62.50    
   7299      1     87      2      0.1000E-01       62.50    
   7300      1     87      3      0.1000E-01       62.50    
   7301      1     87      4      0.1000E-01       62.50    
   7302      1     87      5      0.1000E-01       62.50    
   7303      1     87      6      0.1000E-01       62.50    
   7304      1     87      7      0.1000E-01       62.50    
   7305      1     87      8      0.1000E-01       62.50    
   7306      1     87      9      0.1000E-01       62.50    
   7307      1     87     10      0.1000E-01       62.50    
   7308      1     87     11      0.1000E-01       62.50    
   7309      1     87     12      0.1000E-01       62.50    
   7310      1     87     13      0.1000E-01       62.50    
   7311      1     87     14      0.1000E-01       62.50    
   7312      1     87     15      0.1000E-01       62.50    
   7313      1     87     16      0.1000E-01       62.50    
   7314      1     87     17      0.1000E-01       62.50    
   7315      1     87     18      0.1000E-01       62.50    
   7316      1     87     19      0.1000E-01       62.50    
   7317      1     87     20      0.1000E-01       62.50    
   7318      1     87     21      0.1000E-01       62.50    
   7319      1     87     22      0.1000E-01       62.50    
   7320      1     87     23      0.1000E-01       62.50    
   7321      1     87     24      0.1000E-01       62.50    
   7322      1     87     25      0.1000E-01       62.50    
   7323      1     87     26      0.1000E-01       62.50    
   7324      1     87     27      0.1000E-01       62.50    
   7325      1     87     28      0.1000E-01       62.50    
   7326      1     87     29      0.1000E-01       62.50    
   7327      1     87     30      0.1000E-01       62.50    
   7328      1     87     31      0.1000E-01       62.50    
   7329      1     87     32      0.1000E-01       62.50    
   7330      1     87     33      0.1000E-01       62.50    
   7331      1     87     34      0.1000E-01       62.50    
   7332      1     87     35      0.1000E-01       62.50    
   7333      1     87     36      0.1000E-01       62.50    
   7334      1     87     37      0.1000E-01       62.50    
   7335      1     87     38      0.1000E-01       62.50    
   7336      1     87     39      0.1000E-01       62.50    
   7337      1     87     40      0.1000E-01       62.50    
   7338      1     87     41      0.1000E-01       62.50    
   7339      1     87     42      0.1000E-01       62.50    
   7340      1     87     43      0.1000E-01       62.50    
   7341      1     87     44      0.1000E-01       62.50    
   7342      1     87     45      0.1000E-01       62.50    
   7343      1     87     46      0.1000E-01       62.50    
   7344      1     87     47      0.1000E-01       62.50    
   7345      1     87     48      0.1000E-01       62.50    
   7346      1     87     49      0.1000E-01       62.50    
   7347      1     87     50      0.1000E-01       62.50    
   7348      1     87     51      0.1000E-01       62.50    
   7349      1     87     52      0.1000E-01       62.50    
   7350      1     87     69      0.1000E-01       62.50    
   7351      1     87     70      0.1000E-01       62.50    
   7352      1     87     71      0.1000E-01       62.50    
   7353      1     87     78      0.1000E-01       62.50    
   7354      1     87     79      0.1000E-01       62.50    
   7355      1     87     80      0.1000E-01       62.50    
   7356      1     87     81      0.1000E-01       62.50    
   7357      1     87     82      0.1000E-01       62.50    
   7358      1     87     83      0.1000E-01       62.50    
   7359      1     87     84      0.1000E-01       62.50    
   7360      1     87     85      0.1000E-01       62.50    
   7361      1     87     86      0.1000E-01       62.50    
   7362      1     87     87      0.1000E-01       62.50    
   7363      1     88      2      0.1000E-01       62.50    
   7364      1     88      3      0.1000E-01       62.50    
   7365      1     88      4      0.1000E-01       62.50    
   7366      1     88      5      0.1000E-01       62.50    
   7367      1     88      6      0.1000E-01       62.50    
   7368      1     88      7      0.1000E-01       62.50    
   7369      1     88      8      0.1000E-01       62.50    
   7370      1     88      9      0.1000E-01       62.50    
   7371      1     88     10      0.1000E-01       62.50    
   7372      1     88     11      0.1000E-01       62.50    
   7373      1     88     12      0.1000E-01       62.50    
   7374      1     88     13      0.1000E-01       62.50    
   7375      1     88     14      0.1000E-01       62.50    
   7376      1     88     15      0.1000E-01       62.50    
   7377      1     88     16      0.1000E-01       62.50    
   7378      1     88     17      0.1000E-01       62.50    
   7379      1     88     18      0.1000E-01       62.50    
   7380      1     88     19      0.1000E-01       62.50    
   7381      1     88     20      0.1000E-01       62.50    
   7382      1     88     21      0.1000E-01       62.50    
   7383      1     88     22      0.1000E-01       62.50    
   7384      1     88     23      0.1000E-01       62.50    
   7385      1     88     24      0.1000E-01       62.50    
   7386      1     88     25      0.1000E-01       62.50    
   7387      1     88     26      0.1000E-01       62.50    
   7388      1     88     27      0.1000E-01       62.50    
   7389      1     88     28      0.1000E-01       62.50    
   7390      1     88     29      0.1000E-01       62.50    
   7391      1     88     30      0.1000E-01       62.50    
   7392      1     88     31      0.1000E-01       62.50    
   7393      1     88     32      0.1000E-01       62.50    
   7394      1     88     33      0.1000E-01       62.50    
   7395      1     88     34      0.1000E-01       62.50    
   7396      1     88     35      0.1000E-01       62.50    
   7397      1     88     36      0.1000E-01       62.50    
   7398      1     88     37      0.1000E-01       62.50    
   7399      1     88     38      0.1000E-01       62.50    
   7400      1     88     39      0.1000E-01       62.50    
   7401      1     88     40      0.1000E-01       62.50    
   7402      1     88     41      0.1000E-01       62.50    
   7403      1     88     42      0.1000E-01       62.50    
   7404      1     88     43      0.1000E-01       62.50    
   7405      1     88     44      0.1000E-01       62.50    
   7406      1     88     45      0.1000E-01       62.50    
   7407      1     88     46      0.1000E-01       62.50    
   7408      1     88     47      0.1000E-01       62.50    
   7409      1     88     48      0.1000E-01       62.50    
   7410      1     88     49      0.1000E-01       62.50    
   7411      1     88     50      0.1000E-01       62.50    
   7412      1     88     51      0.1000E-01       62.50    
   7413      1     88     52      0.1000E-01       62.50    
   7414      1     88     53      0.1000E-01       62.50    
   7415      1     88     60      0.1000E-01       62.50    
   7416      1     88     61      0.1000E-01       62.50    
   7417      1     88     67      0.1000E-01       62.50    
   7418      1     88     68      0.1000E-01       62.50    
   7419      1     88     69      0.1000E-01       62.50    
   7420      1     88     70      0.1000E-01       62.50    
   7421      1     88     71      0.1000E-01       62.50    
   7422      1     88     72      0.1000E-01       62.50    
   7423      1     88     77      0.1000E-01       62.50    
   7424      1     88     78      0.1000E-01       62.50    
   7425      1     88     79      0.1000E-01       62.50    
   7426      1     88     80      0.1000E-01       62.50    
   7427      1     88     81      0.1000E-01       62.50    
   7428      1     88     82      0.1000E-01       62.50    
   7429      1     88     83      0.1000E-01       62.50    
   7430      1     88     84      0.1000E-01       62.50    
   7431      1     88     85      0.1000E-01       62.50    
   7432      1     88     86      0.1000E-01       62.50    
   7433      1     89      2      0.1000E-01       62.50    
   7434      1     89      3      0.1000E-01       62.50    
   7435      1     89      4      0.1000E-01       62.50    
   7436      1     89      5      0.1000E-01       62.50    
   7437      1     89      6      0.1000E-01       62.50    
   7438      1     89      7      0.1000E-01       62.50    
   7439      1     89      8      0.1000E-01       62.50    
   7440      1     89      9      0.1000E-01       62.50    
   7441      1     89     10      0.1000E-01       62.50    
   7442      1     89     11      0.1000E-01       62.50    
   7443      1     89     12      0.1000E-01       62.50    
   7444      1     89     13      0.1000E-01       62.50    
   7445      1     89     14      0.1000E-01       62.50    
   7446      1     89     15      0.1000E-01       62.50    
   7447      1     89     16      0.1000E-01       62.50    
   7448      1     89     17      0.1000E-01       62.50    
   7449      1     89     18      0.1000E-01       62.50    
   7450      1     89     19      0.1000E-01       62.50    
   7451      1     89     20      0.1000E-01       62.50    
   7452      1     89     21      0.1000E-01       62.50    
   7453      1     89     22      0.1000E-01       62.50    
   7454      1     89     23      0.1000E-01       62.50    
   7455      1     89     24      0.1000E-01       62.50    
   7456      1     89     25      0.1000E-01       62.50    
   7457      1     89     26      0.1000E-01       62.50    
   7458      1     89     27      0.1000E-01       62.50    
   7459      1     89     28      0.1000E-01       62.50    
   7460      1     89     29      0.1000E-01       62.50    
   7461      1     89     30      0.1000E-01       62.50    
   7462      1     89     31      0.1000E-01       62.50    
   7463      1     89     32      0.1000E-01       62.50    
   7464      1     89     33      0.1000E-01       62.50    
   7465      1     89     34      0.1000E-01       62.50    
   7466      1     89     35      0.1000E-01       62.50    
   7467      1     89     36      0.1000E-01       62.50    
   7468      1     89     37      0.1000E-01       62.50    
   7469      1     89     38      0.1000E-01       62.50    
   7470      1     89     39      0.1000E-01       62.50    
   7471      1     89     40      0.1000E-01       62.50    
   7472      1     89     41      0.1000E-01       62.50    
   7473      1     89     42      0.1000E-01       62.50    
   7474      1     89     43      0.1000E-01       62.50    
   7475      1     89     44      0.1000E-01       62.50    
   7476      1     89     45      0.1000E-01       62.50    
   7477      1     89     46      0.1000E-01       62.50    
   7478      1     89     47      0.1000E-01       62.50    
   7479      1     89     48      0.1000E-01       62.50    
   7480      1     89     49      0.1000E-01       62.50    
   7481      1     89     50      0.1000E-01       62.50    
   7482      1     89     51      0.1000E-01       62.50    
   7483      1     89     52      0.1000E-01       62.50    
   7484      1     89     53      0.1000E-01       62.50    
   7485      1     89     54      0.1000E-01       62.50    
   7486      1     89     55      0.1000E-01       62.50    
   7487      1     89     56      0.1000E-01       62.50    
   7488      1     89     58      0.1000E-01       62.50    
   7489      1     89     59      0.1000E-01       62.50    
   7490      1     89     60      0.1000E-01       62.50    
   7491      1     89     61      0.1000E-01       62.50    
   7492      1     89     62      0.1000E-01       62.50    
   7493      1     89     63      0.1000E-01       62.50    
   7494      1     89     68      0.1000E-01       62.50    
   7495      1     89     69      0.1000E-01       62.50    
   7496      1     89     70      0.1000E-01       62.50    
   7497      1     89     71      0.1000E-01       62.50    
   7498      1     89     72      0.1000E-01       62.50    
   7499      1     89     73      0.1000E-01       62.50    
   7500      1     89     77      0.1000E-01       62.50    
   7501      1     89     78      0.1000E-01       62.50    
   7502      1     89     79      0.1000E-01       62.50    
   7503      1     89     80      0.1000E-01       62.50    
   7504      1     89     81      0.1000E-01       62.50    
   7505      1     89     82      0.1000E-01       62.50    
   7506      1     89     83      0.1000E-01       62.50    
   7507      1     89     84      0.1000E-01       62.50    
   7508      1     89     85      0.1000E-01       62.50    
   7509      1     90      2      0.1000E-01       62.50    
   7510      1     90      3      0.1000E-01       62.50    
   7511      1     90      4      0.1000E-01       62.50    
   7512      1     90      5      0.1000E-01       62.50    
   7513      1     90      6      0.1000E-01       62.50    
   7514      1     90      7      0.1000E-01       62.50    
   7515      1     90      8      0.1000E-01       62.50    
   7516      1     90      9      0.1000E-01       62.50    
   7517      1     90     10      0.1000E-01       62.50    
   7518      1     90     11      0.1000E-01       62.50    
   7519      1     90     12      0.1000E-01       62.50    
   7520      1     90     13      0.1000E-01       62.50    
   7521      1     90     14      0.1000E-01       62.50    
   7522      1     90     20      0.1000E-01       62.50    
   7523      1     90     21      0.1000E-01       62.50    
   7524      1     90     22      0.1000E-01       62.50    
   7525      1     90     23      0.1000E-01       62.50    
   7526      1     90     24      0.1000E-01       62.50    
   7527      1     90     25      0.1000E-01       62.50    
   7528      1     90     26      0.1000E-01       62.50    
   7529      1     90     27      0.1000E-01       62.50    
   7530      1     90     28      0.1000E-01       62.50    
   7531      1     90     29      0.1000E-01       62.50    
   7532      1     90     30      0.1000E-01       62.50    
   7533      1     90     31      0.1000E-01       62.50    
   7534      1     90     32      0.1000E-01       62.50    
   7535      1     90     33      0.1000E-01       62.50    
   7536      1     90     34      0.1000E-01       62.50    
   7537      1     90     35      0.1000E-01       62.50    
   7538      1     90     36      0.1000E-01       62.50    
   7539      1     90     37      0.1000E-01       62.50    
   7540      1     90     38      0.1000E-01       62.50    
   7541      1     90     39      0.1000E-01       62.50    
   7542      1     90     40      0.1000E-01       62.50    
   7543      1     90     41      0.1000E-01       62.50    
   7544      1     90     42      0.1000E-01       62.50    
   7545      1     90     43      0.1000E-01       62.50    
   7546      1     90     44      0.1000E-01       62.50    
   7547      1     90     45      0.1000E-01       62.50    
   7548      1     90     46      0.1000E-01       62.50    
   7549      1     90     47      0.1000E-01       62.50    
   7550      1     90     48      0.1000E-01       62.50    
   7551      1     90     49      0.1000E-01       62.50    
   7552      1     90     50      0.1000E-01       62.50    
   7553      1     90     51      0.1000E-01       62.50    
   7554      1     90     52      0.1000E-01       62.50    
   7555      1     90     53      0.1000E-01       62.50    
   7556      1     90     54      0.1000E-01       62.50    
   7557      1     90     55      0.1000E-01       62.50    
   7558      1     90     56      0.1000E-01       62.50    
   7559      1     90     57      0.1000E-01       62.50    
   7560      1     90     58      0.1000E-01       62.50    
   7561      1     90     59      0.1000E-01       62.50    
   7562      1     90     60      0.1000E-01       62.50    
   7563      1     90     61      0.1000E-01       62.50    
   7564      1     90     62      0.1000E-01       62.50    
   7565      1     90     63      0.1000E-01       62.50    
   7566      1     90     68      0.1000E-01       62.50    
   7567      1     90     69      0.1000E-01       62.50    
   7568      1     90     70      0.1000E-01       62.50    
   7569      1     90     71      0.1000E-01       62.50    
   7570      1     90     72      0.1000E-01       62.50    
   7571      1     90     73      0.1000E-01       62.50    
   7572      1     90     74      0.1000E-01       62.50    
   7573      1     90     76      0.1000E-01       62.50    
   7574      1     90     77      0.1000E-01       62.50    
   7575      1     90     78      0.1000E-01       62.50    
   7576      1     90     79      0.1000E-01       62.50    
   7577      1     90     80      0.1000E-01       62.50    
   7578      1     90     81      0.1000E-01       62.50    
   7579      1     90     82      0.1000E-01       62.50    
   7580      1     90     83      0.1000E-01       62.50    
   7581      1     90     84      0.1000E-01       62.50    
   7582      1     91      2      0.1000E-01       62.50    
   7583      1     91      3      0.1000E-01       62.50    
   7584      1     91      4      0.1000E-01       62.50    
   7585      1     91      5      0.1000E-01       62.50    
   7586      1     91      6      0.1000E-01       62.50    
   7587      1     91      7      0.1000E-01       62.50    
   7588      1     91      8      0.1000E-01       62.50    
   7589      1     91      9      0.1000E-01       62.50    
   7590      1     91     24      0.1000E-01       62.50    
   7591      1     91     25      0.1000E-01       62.50    
   7592      1     91     26      0.1000E-01       62.50    
   7593      1     91     27      0.1000E-01       62.50    
   7594      1     91     28      0.1000E-01       62.50    
   7595      1     91     29      0.1000E-01       62.50    
   7596      1     91     30      0.1000E-01       62.50    
   7597      1     91     31      0.1000E-01       62.50    
   7598      1     91     32      0.1000E-01       62.50    
   7599      1     91     33      0.1000E-01       62.50    
   7600      1     91     34      0.1000E-01       62.50    
   7601      1     91     35      0.1000E-01       62.50    
   7602      1     91     36      0.1000E-01       62.50    
   7603      1     91     37      0.1000E-01       62.50    
   7604      1     91     38      0.1000E-01       62.50    
   7605      1     91     39      0.1000E-01       62.50    
   7606      1     91     40      0.1000E-01       62.50    
   7607      1     91     41      0.1000E-01       62.50    
   7608      1     91     42      0.1000E-01       62.50    
   7609      1     91     43      0.1000E-01       62.50    
   7610      1     91     44      0.1000E-01       62.50    
   7611      1     91     45      0.1000E-01       62.50    
   7612      1     91     46      0.1000E-01       62.50    
   7613      1     91     47      0.1000E-01       62.50    
   7614      1     91     48      0.1000E-01       62.50    
   7615      1     91     49      0.1000E-01       62.50    
   7616      1     91     50      0.1000E-01       62.50    
   7617      1     91     51      0.1000E-01       62.50    
   7618      1     91     52      0.1000E-01       62.50    
   7619      1     91     53      0.1000E-01       62.50    
   7620      1     91     54      0.1000E-01       62.50    
   7621      1     91     55      0.1000E-01       62.50    
   7622      1     91     56      0.1000E-01       62.50    
   7623      1     91     57      0.1000E-01       62.50    
   7624      1     91     58      0.1000E-01       62.50    
   7625      1     91     59      0.1000E-01       62.50    
   7626      1     91     60      0.1000E-01       62.50    
   7627      1     91     61      0.1000E-01       62.50    
   7628      1     91     62      0.1000E-01       62.50    
   7629      1     91     63      0.1000E-01       62.50    
   7630      1     91     68      0.1000E-01       62.50    
   7631      1     91     69      0.1000E-01       62.50    
   7632      1     91     70      0.1000E-01       62.50    
   7633      1     91     71      0.1000E-01       62.50    
   7634      1     91     72      0.1000E-01       62.50    
   7635      1     91     73      0.1000E-01       62.50    
   7636      1     91     74      0.1000E-01       62.50    
   7637      1     91     75      0.1000E-01       62.50    
   7638      1     91     76      0.1000E-01       62.50    
   7639      1     91     77      0.1000E-01       62.50    
   7640      1     91     78      0.1000E-01       62.50    
   7641      1     91     79      0.1000E-01       62.50    
   7642      1     91     80      0.1000E-01       62.50    
   7643      1     91     81      0.1000E-01       62.50    
   7644      1     91     82      0.1000E-01       62.50    
   7645      1     91     83      0.1000E-01       62.50    
   7646      1     92      2      0.1000E-01       62.50    
   7647      1     92      3      0.1000E-01       62.50    
   7648      1     92      4      0.1000E-01       62.50    
   7649      1     92     29      0.1000E-01       62.50    
   7650      1     92     30      0.1000E-01       62.50    
   7651      1     92     31      0.1000E-01       62.50    
   7652      1     92     32      0.1000E-01       62.50    
   7653      1     92     33      0.1000E-01       62.50    
   7654      1     92     34      0.1000E-01       62.50    
   7655      1     92     35      0.1000E-01       62.50    
   7656      1     92     36      0.1000E-01       62.50    
   7657      1     92     37      0.1000E-01       62.50    
   7658      1     92     38      0.1000E-01       62.50    
   7659      1     92     39      0.1000E-01       62.50    
   7660      1     92     40      0.1000E-01       62.50    
   7661      1     92     41      0.1000E-01       62.50    
   7662      1     92     42      0.1000E-01       62.50    
   7663      1     92     43      0.1000E-01       62.50    
   7664      1     92     44      0.1000E-01       62.50    
   7665      1     92     45      0.1000E-01       62.50    
   7666      1     92     46      0.1000E-01       62.50    
   7667      1     92     47      0.1000E-01       62.50    
   7668      1     92     48      0.1000E-01       62.50    
   7669      1     92     49      0.1000E-01       62.50    
   7670      1     92     50      0.1000E-01       62.50    
   7671      1     92     51      0.1000E-01       62.50    
   7672      1     92     52      0.1000E-01       62.50    
   7673      1     92     53      0.1000E-01       62.50    
   7674      1     92     54      0.1000E-01       62.50    
   7675      1     92     55      0.1000E-01       62.50    
   7676      1     92     56      0.1000E-01       62.50    
   7677      1     92     57      0.1000E-01       62.50    
   7678      1     92     58      0.1000E-01       62.50    
   7679      1     92     59      0.1000E-01       62.50    
   7680      1     92     60      0.1000E-01       62.50    
   7681      1     92     61      0.1000E-01       62.50    
   7682      1     92     67      0.1000E-01       62.50    
   7683      1     92     68      0.1000E-01       62.50    
   7684      1     92     69      0.1000E-01       62.50    
   7685      1     92     70      0.1000E-01       62.50    
   7686      1     92     71      0.1000E-01       62.50    
   7687      1     92     72      0.1000E-01       62.50    
   7688      1     92     73      0.1000E-01       62.50    
   7689      1     92     74      0.1000E-01       62.50    
   7690      1     92     75      0.1000E-01       62.50    
   7691      1     92     76      0.1000E-01       62.50    
   7692      1     92     77      0.1000E-01       62.50    
   7693      1     92     78      0.1000E-01       62.50    
   7694      1     92     79      0.1000E-01       62.50    
   7695      1     92     80      0.1000E-01       62.50    
   7696      1     92     81      0.1000E-01       62.50    
   7697      1     92     82      0.1000E-01       62.50    
   7698      1     93     33      0.1000E-01       62.50    
   7699      1     93     34      0.1000E-01       62.50    
   7700      1     93     35      0.1000E-01       62.50    
   7701      1     93     36      0.1000E-01       62.50    
   7702      1     93     37      0.1000E-01       62.50    
   7703      1     93     38      0.1000E-01       62.50    
   7704      1     93     39      0.1000E-01       62.50    
   7705      1     93     40      0.1000E-01       62.50    
   7706      1     93     41      0.1000E-01       62.50    
   7707      1     93     42      0.1000E-01       62.50    
   7708      1     93     43      0.1000E-01       62.50    
   7709      1     93     44      0.1000E-01       62.50    
   7710      1     93     45      0.1000E-01       62.50    
   7711      1     93     46      0.1000E-01       62.50    
   7712      1     93     47      0.1000E-01       62.50    
   7713      1     93     48      0.1000E-01       62.50    
   7714      1     93     49      0.1000E-01       62.50    
   7715      1     93     50      0.1000E-01       62.50    
   7716      1     93     51      0.1000E-01       62.50    
   7717      1     93     52      0.1000E-01       62.50    
   7718      1     93     53      0.1000E-01       62.50    
   7719      1     93     54      0.1000E-01       62.50    
   7720      1     93     55      0.1000E-01       62.50    
   7721      1     93     56      0.1000E-01       62.50    
   7722      1     93     57      0.1000E-01       62.50    
   7723      1     93     58      0.1000E-01       62.50    
   7724      1     93     59      0.1000E-01       62.50    
   7725      1     93     60      0.1000E-01       62.50    
   7726      1     93     61      0.1000E-01       62.50    
   7727      1     93     62      0.1000E-01       62.50    
   7728      1     93     66      0.1000E-01       62.50    
   7729      1     93     67      0.1000E-01       62.50    
   7730      1     93     68      0.1000E-01       62.50    
   7731      1     93     69      0.1000E-01       62.50    
   7732      1     93     70      0.1000E-01       62.50    
   7733      1     93     71      0.1000E-01       62.50    
   7734      1     93     72      0.1000E-01       62.50    
   7735      1     93     73      0.1000E-01       62.50    
   7736      1     93     74      0.1000E-01       62.50    
   7737      1     93     75      0.1000E-01       62.50    
   7738      1     93     76      0.1000E-01       62.50    
   7739      1     93     77      0.1000E-01       62.50    
   7740      1     93     78      0.1000E-01       62.50    
   7741      1     93     79      0.1000E-01       62.50    
   7742      1     94     39      0.1000E-01       62.50    
   7743      1     94     40      0.1000E-01       62.50    
   7744      1     94     41      0.1000E-01       62.50    
   7745      1     94     42      0.1000E-01       62.50    
   7746      1     94     43      0.1000E-01       62.50    
   7747      1     94     44      0.1000E-01       62.50    
   7748      1     94     45      0.1000E-01       62.50    
   7749      1     94     46      0.1000E-01       62.50    
   7750      1     94     47      0.1000E-01       62.50    
   7751      1     94     48      0.1000E-01       62.50    
   7752      1     94     49      0.1000E-01       62.50    
   7753      1     94     50      0.1000E-01       62.50    
   7754      1     94     51      0.1000E-01       62.50    
   7755      1     94     52      0.1000E-01       62.50    
   7756      1     94     53      0.1000E-01       62.50    
   7757      1     94     54      0.1000E-01       62.50    
   7758      1     94     55      0.1000E-01       62.50    
   7759      1     94     56      0.1000E-01       62.50    
   7760      1     94     57      0.1000E-01       62.50    
   7761      1     94     58      0.1000E-01       62.50    
   7762      1     94     59      0.1000E-01       62.50    
   7763      1     94     60      0.1000E-01       62.50    
   7764      1     94     61      0.1000E-01       62.50    
   7765      1     94     62      0.1000E-01       62.50    
   7766      1     94     66      0.1000E-01       62.50    
   7767      1     94     67      0.1000E-01       62.50    
   7768      1     94     68      0.1000E-01       62.50    
   7769      1     94     69      0.1000E-01       62.50    
   7770      1     94     70      0.1000E-01       62.50    
   7771      1     94     71      0.1000E-01       62.50    
   7772      1     94     72      0.1000E-01       62.50    
   7773      1     94     73      0.1000E-01       62.50    
   7774      1     94     74      0.1000E-01       62.50    
   7775      1     94     75      0.1000E-01       62.50    
   7776      1     94     76      0.1000E-01       62.50    
   7777      1     94     77      0.1000E-01       62.50    
   7778      1     95     43      0.1000E-01       62.50    
   7779      1     95     44      0.1000E-01       62.50    
   7780      1     95     45      0.1000E-01       62.50    
   7781      1     95     46      0.1000E-01       62.50    
   7782      1     95     47      0.1000E-01       62.50    
   7783      1     95     48      0.1000E-01       62.50    
   7784      1     95     49      0.1000E-01       62.50    
   7785      1     95     50      0.1000E-01       62.50    
   7786      1     95     51      0.1000E-01       62.50    
   7787      1     95     52      0.1000E-01       62.50    
   7788      1     95     53      0.1000E-01       62.50    
   7789      1     95     54      0.1000E-01       62.50    
   7790      1     95     55      0.1000E-01       62.50    
   7791      1     95     56      0.1000E-01       62.50    
   7792      1     95     57      0.1000E-01       62.50    
   7793      1     95     58      0.1000E-01       62.50    
   7794      1     95     59      0.1000E-01       62.50    
   7795      1     95     60      0.1000E-01       62.50    
   7796      1     95     61      0.1000E-01       62.50    
   7797      1     95     62      0.1000E-01       62.50    
   7798      1     95     63      0.1000E-01       62.50    
   7799      1     95     65      0.1000E-01       62.50    
   7800      1     95     66      0.1000E-01       62.50    
   7801      1     95     67      0.1000E-01       62.50    
   7802      1     95     68      0.1000E-01       62.50    
   7803      1     95     69      0.1000E-01       62.50    
   7804      1     95     70      0.1000E-01       62.50    
   7805      1     95     71      0.1000E-01       62.50    
   7806      1     95     72      0.1000E-01       62.50    
   7807      1     95     73      0.1000E-01       62.50    
   7808      1     95     74      0.1000E-01       62.50    
   7809      1     95     75      0.1000E-01       62.50    
   7810      1     96     46      0.1000E-01       62.50    
   7811      1     96     47      0.1000E-01       62.50    
   7812      1     96     48      0.1000E-01       62.50    
   7813      1     96     49      0.1000E-01       62.50    
   7814      1     96     50      0.1000E-01       62.50    
   7815      1     96     51      0.1000E-01       62.50    
   7816      1     96     52      0.1000E-01       62.50    
   7817      1     96     53      0.1000E-01       62.50    
   7818      1     96     54      0.1000E-01       62.50    
   7819      1     96     55      0.1000E-01       62.50    
   7820      1     96     56      0.1000E-01       62.50    
   7821      1     96     57      0.1000E-01       62.50    
   7822      1     96     58      0.1000E-01       62.50    
   7823      1     96     59      0.1000E-01       62.50    
   7824      1     96     60      0.1000E-01       62.50    
   7825      1     96     61      0.1000E-01       62.50    
   7826      1     96     62      0.1000E-01       62.50    
   7827      1     96     63      0.1000E-01       62.50    
   7828      1     96     64      0.1000E-01       62.50    
   7829      1     96     65      0.1000E-01       62.50    
   7830      1     96     66      0.1000E-01       62.50    
   7831      1     96     67      0.1000E-01       62.50    
   7832      1     96     68      0.1000E-01       62.50    
   7833      1     96     69      0.1000E-01       62.50    
   7834      1     96     70      0.1000E-01       62.50    
   7835      1     96     71      0.1000E-01       62.50    
   7836      1     96     72      0.1000E-01       62.50    
   7837      1     97     49      0.1000E-01       62.50    
   7838      1     97     50      0.1000E-01       62.50    
   7839      1     97     51      0.1000E-01       62.50    
   7840      1     97     52      0.1000E-01       62.50    
   7841      1     97     53      0.1000E-01       62.50    
   7842      1     97     54      0.1000E-01       62.50    
   7843      1     97     55      0.1000E-01       62.50    
   7844      1     97     56      0.1000E-01       62.50    
   7845      1     97     57      0.1000E-01       62.50    
   7846      1     97     58      0.1000E-01       62.50    
   7847      1     97     59      0.1000E-01       62.50    
   7848      1     97     60      0.1000E-01       62.50    
   7849      1     97     61      0.1000E-01       62.50    
   7850      1     97     62      0.1000E-01       62.50    
   7851      1     97     63      0.1000E-01       62.50    
   7852      1     97     64      0.1000E-01       62.50    
   7853      1     97     65      0.1000E-01       62.50    
   7854      1     97     66      0.1000E-01       62.50    
   7855      1     97     67      0.1000E-01       62.50    
   7856      1     97     68      0.1000E-01       62.50    
   7857      1     97     69      0.1000E-01       62.50    
   7858      1     98     53      0.1000E-01       62.50    
   7859      1     98     54      0.1000E-01       62.50    
   7860      1     98     55      0.1000E-01       62.50    
   7861      1     98     56      0.1000E-01       62.50    
   7862      1     98     57      0.1000E-01       62.50    
   7863      1     98     58      0.1000E-01       62.50    
   7864      1     98     59      0.1000E-01       62.50    
   7865      1     98     60      0.1000E-01       62.50    
   7866      1     98     61      0.1000E-01       62.50    
   7867      1     98     62      0.1000E-01       62.50    
   7868      1     98     63      0.1000E-01       62.50    
   7869      1     98     64      0.1000E-01       62.50    
   7870      1     98     65      0.1000E-01       62.50    
   7871      1     98     66      0.1000E-01       62.50    
   7872      1     99     58      0.1000E-01       62.50    
   7873      1     99     59      0.1000E-01       62.50    
   7874      1     99     60      0.1000E-01       62.50    
   7875      1     99     61      0.1000E-01       62.50    
   7876      1     99     62      0.1000E-01       62.50    

   7876 GHB CELLS



                           RECHARGE
 READING ON UNIT   19 WITH FORMAT: (200E15.6)          
 
 SOLVING FOR HEAD 

 NO OUTPUT CONTROL FOR STRESS PERIOD    1   TIME STEP    1

 HEAD OBS#    1, ID Obs_0        IS DRY -- OMIT (OBS2BAS7SE)

 HEAD OBS#    2, ID Obs_1        IS DRY -- OMIT (OBS2BAS7SE)

 HEAD OBS#    3, ID Obs_2        IS DRY -- OMIT (OBS2BAS7SE)

 HEAD OBS#   10, ID Obs_9        IS DRY -- OMIT (OBS2BAS7SE)

 HEAD OBS#   11, ID Obs_10       IS DRY -- OMIT (OBS2BAS7SE)

 HEAD OBS#   12, ID Obs_11       IS DRY -- OMIT (OBS2BAS7SE)

 HEAD OBS#   13, ID Obs_12       IS DRY -- OMIT (OBS2BAS7SE)

 HEAD OBS#   20, ID Obs_19       IS DRY -- OMIT (OBS2BAS7SE)

 HEAD OBS#   22, ID Obs_21       IS DRY -- OMIT (OBS2BAS7SE)

 HEAD OBS#   23, ID Obs_22       IS DRY -- OMIT (OBS2BAS7SE)

 HEAD OBS#   24, ID Obs_23       IS DRY -- OMIT (OBS2BAS7SE)

 HEAD OBS#   29, ID Obs_28       IS DRY -- OMIT (OBS2BAS7SE)

 HEAD OBS#   30, ID Obs_29       IS DRY -- OMIT (OBS2BAS7SE)

 HEAD OBS#   31, ID Obs_30       IS DRY -- OMIT (OBS2BAS7SE)

 HEAD OBS#   32, ID Obs_31       IS DRY -- OMIT (OBS2BAS7SE)

 HEAD OBS#   36, ID Obs_35       IS DRY -- OMIT (OBS2BAS7SE)

 HEAD OBS#   37, ID Obs_36       IS DRY -- OMIT (OBS2BAS7SE)

 HEAD OBS#   38, ID Obs_37       IS DRY -- OMIT (OBS2BAS7SE)

 HEAD OBS#   50, ID Obs_49       IS DRY -- OMIT (OBS2BAS7SE)

 HEAD OBS#   51, ID Obs_50       IS DRY -- OMIT (OBS2BAS7SE)

 HEAD OBS#   58, ID Obs_57       IS DRY -- OMIT (OBS2BAS7SE)

 HEAD OBS#   71, ID Obs_70       IS DRY -- OMIT (OBS2BAS7SE)

 HEAD OBS#   77, ID Obs_76       IS DRY -- OMIT (OBS2BAS7SE)

 HEAD OBS#   99, ID Obs_98       IS DRY -- OMIT (OBS2BAS7SE)

 HEAD OBS#  106, ID Obs_105      IS DRY -- OMIT (OBS2BAS7SE)

 HEAD OBS#  107, ID Obs_106      IS DRY -- OMIT (OBS2BAS7SE)

 HEAD OBS#  108, ID Obs_107      IS DRY -- OMIT (OBS2BAS7SE)

 HEAD OBS#  120, ID Obs_119      IS DRY -- OMIT (OBS2BAS7SE)

 HEAD OBS#  121, ID Obs_120      IS DRY -- OMIT (OBS2BAS7SE)

 HEAD OBS#  122, ID Obs_121      IS DRY -- OMIT (OBS2BAS7SE)

 HEAD OBS#  129, ID Obs_128      IS DRY -- OMIT (OBS2BAS7SE)

 HEAD OBS#  130, ID Obs_129      IS DRY -- OMIT (OBS2BAS7SE)

 HEAD OBS#  131, ID Obs_130      IS DRY -- OMIT (OBS2BAS7SE)

 HEAD OBS#  139, ID Obs_138      IS DRY -- OMIT (OBS2BAS7SE)

 HEAD OBS#  140, ID Obs_139      IS DRY -- OMIT (OBS2BAS7SE)

 HEAD OBS#  141, ID Obs_140      IS DRY -- OMIT (OBS2BAS7SE)

 HEAD OBS#  142, ID Obs_141      IS DRY -- OMIT (OBS2BAS7SE)

 HEAD OBS#  150, ID Obs_149      IS DRY -- OMIT (OBS2BAS7SE)

 HEAD OBS#  151, ID Obs_150      IS DRY -- OMIT (OBS2BAS7SE)

 HEAD OBS#  152, ID Obs_151      IS DRY -- OMIT (OBS2BAS7SE)

 HEAD OBS#  153, ID Obs_152      IS DRY -- OMIT (OBS2BAS7SE)

 HEAD OBS#  157, ID Obs_156      IS DRY -- OMIT (OBS2BAS7SE)

 HEAD OBS#  158, ID Obs_157      IS DRY -- OMIT (OBS2BAS7SE)

 HEAD OBS#  159, ID Obs_158      IS DRY -- OMIT (OBS2BAS7SE)

 HEAD OBS#  160, ID Obs_159      IS DRY -- OMIT (OBS2BAS7SE)

 HEAD OBS#  161, ID Obs_160      IS DRY -- OMIT (OBS2BAS7SE)

 HEAD OBS#  165, ID Obs_164      IS DRY -- OMIT (OBS2BAS7SE)

 HEAD OBS#  166, ID Obs_165      IS DRY -- OMIT (OBS2BAS7SE)

 HEAD OBS#  167, ID Obs_166      IS DRY -- OMIT (OBS2BAS7SE)

 HEAD OBS#  168, ID Obs_167      IS DRY -- OMIT (OBS2BAS7SE)

 HEAD OBS#  169, ID Obs_168      IS DRY -- OMIT (OBS2BAS7SE)

 HEAD OBS#  173, ID Obs_172      IS DRY -- OMIT (OBS2BAS7SE)

 HEAD OBS#  174, ID Obs_173      IS DRY -- OMIT (OBS2BAS7SE)

 HEAD OBS#  175, ID Obs_174      IS DRY -- OMIT (OBS2BAS7SE)

 HEAD OBS#  176, ID Obs_175      IS DRY -- OMIT (OBS2BAS7SE)

 HEAD OBS#  177, ID Obs_176      IS DRY -- OMIT (OBS2BAS7SE)

 HEAD OBS#  183, ID Obs_182      IS DRY -- OMIT (OBS2BAS7SE)

 HEAD OBS#  184, ID Obs_183      IS DRY -- OMIT (OBS2BAS7SE)

 HEAD OBS#  185, ID Obs_184      IS DRY -- OMIT (OBS2BAS7SE)

 HEAD OBS#  186, ID Obs_185      IS DRY -- OMIT (OBS2BAS7SE)

 HEAD OBS#  187, ID Obs_186      IS DRY -- OMIT (OBS2BAS7SE)

 HEAD OBS#  193, ID Obs_192      IS DRY -- OMIT (OBS2BAS7SE)

 HEAD OBS#  194, ID Obs_193      IS DRY -- OMIT (OBS2BAS7SE)

 HEAD OBS#  195, ID Obs_194      IS DRY -- OMIT (OBS2BAS7SE)

 HEAD OBS#  196, ID Obs_195      IS DRY -- OMIT (OBS2BAS7SE)

 HEAD OBS#  197, ID Obs_196      IS DRY -- OMIT (OBS2BAS7SE)

 HEAD OBS#  203, ID Obs_202      IS DRY -- OMIT (OBS2BAS7SE)

 HEAD OBS#  204, ID Obs_203      IS DRY -- OMIT (OBS2BAS7SE)

 HEAD OBS#  205, ID Obs_204      IS DRY -- OMIT (OBS2BAS7SE)

 HEAD OBS#  206, ID Obs_205      IS DRY -- OMIT (OBS2BAS7SE)

 HEAD OBS#  207, ID Obs_206      IS DRY -- OMIT (OBS2BAS7SE)

 HEAD OBS#  208, ID Obs_207      IS DRY -- OMIT (OBS2BAS7SE)
 
 SOLVING FOR HEAD 

 NO OUTPUT CONTROL FOR STRESS PERIOD    1   TIME STEP    2
 
 SOLVING FOR HEAD 

 NO OUTPUT CONTROL FOR STRESS PERIOD    1   TIME STEP    3
 
 SOLVING FOR HEAD 

 NO OUTPUT CONTROL FOR STRESS PERIOD    1   TIME STEP    4
 
 SOLVING FOR HEAD 

 NO OUTPUT CONTROL FOR STRESS PERIOD    1   TIME STEP    5
 
 SOLVING FOR HEAD 

 NO OUTPUT CONTROL FOR STRESS PERIOD    1   TIME STEP    6
 
 SOLVING FOR HEAD 

 NO OUTPUT CONTROL FOR STRESS PERIOD    1   TIME STEP    7
 
 SOLVING FOR HEAD 

 NO OUTPUT CONTROL FOR STRESS PERIOD    1   TIME STEP    8
 
 SOLVING FOR HEAD 

 NO OUTPUT CONTROL FOR STRESS PERIOD    1   TIME STEP    9
 
 SOLVING FOR HEAD 

 NO OUTPUT CONTROL FOR STRESS PERIOD    1   TIME STEP   10
 
 SOLVING FOR HEAD 

 NO OUTPUT CONTROL FOR STRESS PERIOD    1   TIME STEP   11
 
 SOLVING FOR HEAD 

 NO OUTPUT CONTROL FOR STRESS PERIOD    1   TIME STEP   12
 
 SOLVING FOR HEAD 

 NO OUTPUT CONTROL FOR STRESS PERIOD    1   TIME STEP   13
 
 SOLVING FOR HEAD 

 NO OUTPUT CONTROL FOR STRESS PERIOD    1   TIME STEP   14
 
 SOLVING FOR HEAD 

 NO OUTPUT CONTROL FOR STRESS PERIOD    1   TIME STEP   15
 
 SOLVING FOR HEAD 

 NO OUTPUT CONTROL FOR STRESS PERIOD    1   TIME STEP   16
 
 SOLVING FOR HEAD 

 NO OUTPUT CONTROL FOR STRESS PERIOD    1   TIME STEP   17
 
 SOLVING FOR HEAD 

 NO OUTPUT CONTROL FOR STRESS PERIOD    1   TIME STEP   18
 
 SOLVING FOR HEAD 

 NO OUTPUT CONTROL FOR STRESS PERIOD    1   TIME STEP   19
 
 SOLVING FOR HEAD 

 OUTPUT CONTROL FOR STRESS PERIOD    1   TIME STEP   20
    SAVE HEAD FOR ALL LAYERS
    PRINT BUDGET

 HEAD WILL BE SAVED ON UNIT   51 AT END OF TIME STEP   20, STRESS PERIOD    1
1
  VOLUMETRIC BUDGET FOR ENTIRE MODEL AT END OF TIME STEP   20, STRESS PERIOD   1
  ------------------------------------------------------------------------------

     CUMULATIVE VOLUMES      L**3       RATES FOR THIS TIME STEP      L**3/T
     ------------------                 ------------------------

           IN:                                      IN:
           ---                                      ---
             STORAGE =           0.0000               STORAGE =           0.0000
       CONSTANT HEAD =           0.0000         CONSTANT HEAD =           0.0000
     HEAD DEP BOUNDS =           0.0000       HEAD DEP BOUNDS =           0.0000
            RECHARGE =  6083410432.0000              RECHARGE =      832773.5625

            TOTAL IN =  6083410432.0000              TOTAL IN =      832773.5625

          OUT:                                     OUT:
          ----                                     ----
             STORAGE =           0.0000               STORAGE =           0.0000
       CONSTANT HEAD =           0.0000         CONSTANT HEAD =           0.0000
     HEAD DEP BOUNDS =  6083410432.0000       HEAD DEP BOUNDS =      832773.5625
            RECHARGE =           0.0000              RECHARGE =           0.0000

           TOTAL OUT =  6083410432.0000             TOTAL OUT =      832773.5625

            IN - OUT =           0.0000              IN - OUT =           0.0000

 PERCENT DISCREPANCY =           0.00     PERCENT DISCREPANCY =           0.00






         TIME SUMMARY AT END OF TIME STEP   20 IN STRESS PERIOD    1
                    SECONDS     MINUTES      HOURS       DAYS        YEARS
                    -----------------------------------------------------------
   TIME STEP LENGTH 3.15576E+07 5.25960E+05  8766.0      365.25      1.0000    
 STRESS PERIOD TIME 6.31152E+08 1.05192E+07 1.75320E+05  7305.0      20.000    
         TOTAL TIME 6.31152E+08 1.05192E+07 1.75320E+05  7305.0      20.000    
1
 
 SOLVING FOR HEAD 

 NO OUTPUT CONTROL FOR STRESS PERIOD    1   TIME STEP   21
 
 SOLVING FOR HEAD 

 NO OUTPUT CONTROL FOR STRESS PERIOD    1   TIME STEP   22
 
 SOLVING FOR HEAD 

 NO OUTPUT CONTROL FOR STRESS PERIOD    1   TIME STEP   23
 
 SOLVING FOR HEAD 

 NO OUTPUT CONTROL FOR STRESS PERIOD    1   TIME STEP   24
 
 SOLVING FOR HEAD 

 NO OUTPUT CONTROL FOR STRESS PERIOD    1   TIME STEP   25
 
 SOLVING FOR HEAD 

 NO OUTPUT CONTROL FOR STRESS PERIOD    1   TIME STEP   26
 
 SOLVING FOR HEAD 

 NO OUTPUT CONTROL FOR STRESS PERIOD    1   TIME STEP   27
 
 SOLVING FOR HEAD 

 NO OUTPUT CONTROL FOR STRESS PERIOD    1   TIME STEP   28
 
 SOLVING FOR HEAD 

 NO OUTPUT CONTROL FOR STRESS PERIOD    1   TIME STEP   29
 
 SOLVING FOR HEAD 

 NO OUTPUT CONTROL FOR STRESS PERIOD    1   TIME STEP   30
 
 SOLVING FOR HEAD 

 NO OUTPUT CONTROL FOR STRESS PERIOD    1   TIME STEP   31
 
 SOLVING FOR HEAD 

 NO OUTPUT CONTROL FOR STRESS PERIOD    1   TIME STEP   32
 
 SOLVING FOR HEAD 

 NO OUTPUT CONTROL FOR STRESS PERIOD    1   TIME STEP   33
 
 SOLVING FOR HEAD 

 NO OUTPUT CONTROL FOR STRESS PERIOD    1   TIME STEP   34
 
 SOLVING FOR HEAD 

 NO OUTPUT CONTROL FOR STRESS PERIOD    1   TIME STEP   35
 
 SOLVING FOR HEAD 

 NO OUTPUT CONTROL FOR STRESS PERIOD    1   TIME STEP   36
 
 SOLVING FOR HEAD 

 NO OUTPUT CONTROL FOR STRESS PERIOD    1   TIME STEP   37
 
 SOLVING FOR HEAD 

 NO OUTPUT CONTROL FOR STRESS PERIOD    1   TIME STEP   38
 
 SOLVING FOR HEAD 

 NO OUTPUT CONTROL FOR STRESS PERIOD    1   TIME STEP   39
 
 SOLVING FOR HEAD 

 OUTPUT CONTROL FOR STRESS PERIOD    1   TIME STEP   40
    SAVE HEAD FOR ALL LAYERS
    PRINT BUDGET

 HEAD WILL BE SAVED ON UNIT   51 AT END OF TIME STEP   40, STRESS PERIOD    1
1
  VOLUMETRIC BUDGET FOR ENTIRE MODEL AT END OF TIME STEP   40, STRESS PERIOD   1
  ------------------------------------------------------------------------------

     CUMULATIVE VOLUMES      L**3       RATES FOR THIS TIME STEP      L**3/T
     ------------------                 ------------------------

           IN:                                      IN:
           ---                                      ---
             STORAGE =           0.0000               STORAGE =           0.0000
       CONSTANT HEAD =           0.0000         CONSTANT HEAD =           0.0000
     HEAD DEP BOUNDS =           0.0000       HEAD DEP BOUNDS =           0.0000
            RECHARGE = 12166825984.0000              RECHARGE =      832773.5625

            TOTAL IN = 12166825984.0000              TOTAL IN =      832773.5625

          OUT:                                     OUT:
          ----                                     ----
             STORAGE =           0.0000               STORAGE =           0.0000
       CONSTANT HEAD =           0.0000         CONSTANT HEAD =           0.0000
     HEAD DEP BOUNDS = 12166825984.0000       HEAD DEP BOUNDS =      832773.5625
            RECHARGE =           0.0000              RECHARGE =           0.0000

           TOTAL OUT = 12166825984.0000             TOTAL OUT =      832773.5625

            IN - OUT =           0.0000              IN - OUT =           0.0000

 PERCENT DISCREPANCY =           0.00     PERCENT DISCREPANCY =           0.00






         TIME SUMMARY AT END OF TIME STEP   40 IN STRESS PERIOD    1
                    SECONDS     MINUTES      HOURS       DAYS        YEARS
                    -----------------------------------------------------------
   TIME STEP LENGTH 3.15576E+07 5.25960E+05  8766.0      365.25      1.0000    
 STRESS PERIOD TIME 1.26230E+09 2.10384E+07 3.50640E+05  14610.      40.000    
         TOTAL TIME 1.26230E+09 2.10384E+07 3.50640E+05  14610.      40.000    
1
 
 SOLVING FOR HEAD 

 NO OUTPUT CONTROL FOR STRESS PERIOD    1   TIME STEP   41
 
 SOLVING FOR HEAD 

 NO OUTPUT CONTROL FOR STRESS PERIOD    1   TIME STEP   42
 
 SOLVING FOR HEAD 

 NO OUTPUT CONTROL FOR STRESS PERIOD    1   TIME STEP   43
 
 SOLVING FOR HEAD 

 NO OUTPUT CONTROL FOR STRESS PERIOD    1   TIME STEP   44
 
 SOLVING FOR HEAD 

 NO OUTPUT CONTROL FOR STRESS PERIOD    1   TIME STEP   45
 
 SOLVING FOR HEAD 

 NO OUTPUT CONTROL FOR STRESS PERIOD    1   TIME STEP   46
 
 SOLVING FOR HEAD 

 NO OUTPUT CONTROL FOR STRESS PERIOD    1   TIME STEP   47
 
 SOLVING FOR HEAD 

 NO OUTPUT CONTROL FOR STRESS PERIOD    1   TIME STEP   48
 
 SOLVING FOR HEAD 

 NO OUTPUT CONTROL FOR STRESS PERIOD    1   TIME STEP   49
 
 SOLVING FOR HEAD 

 NO OUTPUT CONTROL FOR STRESS PERIOD    1   TIME STEP   50
 
 SOLVING FOR HEAD 

 NO OUTPUT CONTROL FOR STRESS PERIOD    1   TIME STEP   51
 
 SOLVING FOR HEAD 

 NO OUTPUT CONTROL FOR STRESS PERIOD    1   TIME STEP   52
 
 SOLVING FOR HEAD 

 NO OUTPUT CONTROL FOR STRESS PERIOD    1   TIME STEP   53
 
 SOLVING FOR HEAD 

 NO OUTPUT CONTROL FOR STRESS PERIOD    1   TIME STEP   54
 
 SOLVING FOR HEAD 

 NO OUTPUT CONTROL FOR STRESS PERIOD    1   TIME STEP   55
 
 SOLVING FOR HEAD 

 NO OUTPUT CONTROL FOR STRESS PERIOD    1   TIME STEP   56
 
 SOLVING FOR HEAD 

 NO OUTPUT CONTROL FOR STRESS PERIOD    1   TIME STEP   57
 
 SOLVING FOR HEAD 

 NO OUTPUT CONTROL FOR STRESS PERIOD    1   TIME STEP   58
 
 SOLVING FOR HEAD 

 NO OUTPUT CONTROL FOR STRESS PERIOD    1   TIME STEP   59
 
 SOLVING FOR HEAD 

 OUTPUT CONTROL FOR STRESS PERIOD    1   TIME STEP   60
    SAVE HEAD FOR ALL LAYERS
    PRINT BUDGET

 HEAD WILL BE SAVED ON UNIT   51 AT END OF TIME STEP   60, STRESS PERIOD    1
1
  VOLUMETRIC BUDGET FOR ENTIRE MODEL AT END OF TIME STEP   60, STRESS PERIOD   1
  ------------------------------------------------------------------------------

     CUMULATIVE VOLUMES      L**3       RATES FOR THIS TIME STEP      L**3/T
     ------------------                 ------------------------

           IN:                                      IN:
           ---                                      ---
             STORAGE =           0.0000               STORAGE =           0.0000
       CONSTANT HEAD =           0.0000         CONSTANT HEAD =           0.0000
     HEAD DEP BOUNDS =           0.0000       HEAD DEP BOUNDS =           0.0000
            RECHARGE = 18250246144.0000              RECHARGE =      832773.5625

            TOTAL IN = 18250246144.0000              TOTAL IN =      832773.5625

          OUT:                                     OUT:
          ----                                     ----
             STORAGE =           0.0000               STORAGE =           0.0000
       CONSTANT HEAD =           0.0000         CONSTANT HEAD =           0.0000
     HEAD DEP BOUNDS = 18250246144.0000       HEAD DEP BOUNDS =      832773.5625
            RECHARGE =           0.0000              RECHARGE =           0.0000

           TOTAL OUT = 18250246144.0000             TOTAL OUT =      832773.5625

            IN - OUT =           0.0000              IN - OUT =           0.0000

 PERCENT DISCREPANCY =           0.00     PERCENT DISCREPANCY =           0.00






         TIME SUMMARY AT END OF TIME STEP   60 IN STRESS PERIOD    1
                    SECONDS     MINUTES      HOURS       DAYS        YEARS
                    -----------------------------------------------------------
   TIME STEP LENGTH 3.15576E+07 5.25960E+05  8766.0      365.25      1.0000    
 STRESS PERIOD TIME 1.89346E+09 3.15576E+07 5.25960E+05  21915.      60.000    
         TOTAL TIME 1.89346E+09 3.15576E+07 5.25960E+05  21915.      60.000    
1
 
 SOLVING FOR HEAD 

 NO OUTPUT CONTROL FOR STRESS PERIOD    1   TIME STEP   61
 
 SOLVING FOR HEAD 

 NO OUTPUT CONTROL FOR STRESS PERIOD    1   TIME STEP   62
 
 SOLVING FOR HEAD 

 NO OUTPUT CONTROL FOR STRESS PERIOD    1   TIME STEP   63
 
 SOLVING FOR HEAD 

 NO OUTPUT CONTROL FOR STRESS PERIOD    1   TIME STEP   64
 
 SOLVING FOR HEAD 

 NO OUTPUT CONTROL FOR STRESS PERIOD    1   TIME STEP   65
 
 SOLVING FOR HEAD 

 NO OUTPUT CONTROL FOR STRESS PERIOD    1   TIME STEP   66
 
 SOLVING FOR HEAD 

 NO OUTPUT CONTROL FOR STRESS PERIOD    1   TIME STEP   67
 
 SOLVING FOR HEAD 

 NO OUTPUT CONTROL FOR STRESS PERIOD    1   TIME STEP   68
 
 SOLVING FOR HEAD 

 NO OUTPUT CONTROL FOR STRESS PERIOD    1   TIME STEP   69
 
 SOLVING FOR HEAD 

 NO OUTPUT CONTROL FOR STRESS PERIOD    1   TIME STEP   70
 
 SOLVING FOR HEAD 

 NO OUTPUT CONTROL FOR STRESS PERIOD    1   TIME STEP   71
 
 SOLVING FOR HEAD 

 NO OUTPUT CONTROL FOR STRESS PERIOD    1   TIME STEP   72
 
 SOLVING FOR HEAD 

 NO OUTPUT CONTROL FOR STRESS PERIOD    1   TIME STEP   73
 
 SOLVING FOR HEAD 

 NO OUTPUT CONTROL FOR STRESS PERIOD    1   TIME STEP   74
 
 SOLVING FOR HEAD 

 NO OUTPUT CONTROL FOR STRESS PERIOD    1   TIME STEP   75
 
 SOLVING FOR HEAD 

 NO OUTPUT CONTROL FOR STRESS PERIOD    1   TIME STEP   76
 
 SOLVING FOR HEAD 

 NO OUTPUT CONTROL FOR STRESS PERIOD    1   TIME STEP   77
 
 SOLVING FOR HEAD 

 NO OUTPUT CONTROL FOR STRESS PERIOD    1   TIME STEP   78
 
 SOLVING FOR HEAD 

 NO OUTPUT CONTROL FOR STRESS PERIOD    1   TIME STEP   79
 
 SOLVING FOR HEAD 

 OUTPUT CONTROL FOR STRESS PERIOD    1   TIME STEP   80
    SAVE HEAD FOR ALL LAYERS
    PRINT BUDGET

 HEAD WILL BE SAVED ON UNIT   51 AT END OF TIME STEP   80, STRESS PERIOD    1
1
  VOLUMETRIC BUDGET FOR ENTIRE MODEL AT END OF TIME STEP   80, STRESS PERIOD   1
  ------------------------------------------------------------------------------

     CUMULATIVE VOLUMES      L**3       RATES FOR THIS TIME STEP      L**3/T
     ------------------                 ------------------------

           IN:                                      IN:
           ---                                      ---
             STORAGE =           0.0000               STORAGE =           0.0000
       CONSTANT HEAD =           0.0000         CONSTANT HEAD =           0.0000
     HEAD DEP BOUNDS =           0.0000       HEAD DEP BOUNDS =           0.0000
            RECHARGE = 24333666304.0000              RECHARGE =      832773.5625

            TOTAL IN = 24333666304.0000              TOTAL IN =      832773.5625

          OUT:                                     OUT:
          ----                                     ----
             STORAGE =           0.0000               STORAGE =           0.0000
       CONSTANT HEAD =           0.0000         CONSTANT HEAD =           0.0000
     HEAD DEP BOUNDS = 24333666304.0000       HEAD DEP BOUNDS =      832773.5625
            RECHARGE =           0.0000              RECHARGE =           0.0000

           TOTAL OUT = 24333666304.0000             TOTAL OUT =      832773.5625

            IN - OUT =           0.0000              IN - OUT =           0.0000

 PERCENT DISCREPANCY =           0.00     PERCENT DISCREPANCY =           0.00






         TIME SUMMARY AT END OF TIME STEP   80 IN STRESS PERIOD    1
                    SECONDS     MINUTES      HOURS       DAYS        YEARS
                    -----------------------------------------------------------
   TIME STEP LENGTH 3.15576E+07 5.25960E+05  8766.0      365.25      1.0000    
 STRESS PERIOD TIME 2.52461E+09 4.20768E+07 7.01280E+05  29220.      80.000    
         TOTAL TIME 2.52461E+09 4.20768E+07 7.01280E+05  29220.      80.000    
1
 
 SOLVING FOR HEAD 

 NO OUTPUT CONTROL FOR STRESS PERIOD    1   TIME STEP   81
 
 SOLVING FOR HEAD 

 NO OUTPUT CONTROL FOR STRESS PERIOD    1   TIME STEP   82
 
 SOLVING FOR HEAD 

 NO OUTPUT CONTROL FOR STRESS PERIOD    1   TIME STEP   83
 
 SOLVING FOR HEAD 

 NO OUTPUT CONTROL FOR STRESS PERIOD    1   TIME STEP   84
 
 SOLVING FOR HEAD 

 NO OUTPUT CONTROL FOR STRESS PERIOD    1   TIME STEP   85
 
 SOLVING FOR HEAD 

 NO OUTPUT CONTROL FOR STRESS PERIOD    1   TIME STEP   86
 
 SOLVING FOR HEAD 

 NO OUTPUT CONTROL FOR STRESS PERIOD    1   TIME STEP   87
 
 SOLVING FOR HEAD 

 NO OUTPUT CONTROL FOR STRESS PERIOD    1   TIME STEP   88
 
 SOLVING FOR HEAD 

 NO OUTPUT CONTROL FOR STRESS PERIOD    1   TIME STEP   89
 
 SOLVING FOR HEAD 

 NO OUTPUT CONTROL FOR STRESS PERIOD    1   TIME STEP   90
 
 SOLVING FOR HEAD 

 NO OUTPUT CONTROL FOR STRESS PERIOD    1   TIME STEP   91
 
 SOLVING FOR HEAD 

 NO OUTPUT CONTROL FOR STRESS PERIOD    1   TIME STEP   92
 
 SOLVING FOR HEAD 

 NO OUTPUT CONTROL FOR STRESS PERIOD    1   TIME STEP   93
 
 SOLVING FOR HEAD 

 NO OUTPUT CONTROL FOR STRESS PERIOD    1   TIME STEP   94
 
 SOLVING FOR HEAD 

 NO OUTPUT CONTROL FOR STRESS PERIOD    1   TIME STEP   95
 
 SOLVING FOR HEAD 

 NO OUTPUT CONTROL FOR STRESS PERIOD    1   TIME STEP   96
 
 SOLVING FOR HEAD 

 NO OUTPUT CONTROL FOR STRESS PERIOD    1   TIME STEP   97
 
 SOLVING FOR HEAD 

 NO OUTPUT CONTROL FOR STRESS PERIOD    1   TIME STEP   98
 
 SOLVING FOR HEAD 

 NO OUTPUT CONTROL FOR STRESS PERIOD    1   TIME STEP   99
 
 SOLVING FOR HEAD 

 OUTPUT CONTROL FOR STRESS PERIOD    1   TIME STEP  100
    SAVE HEAD FOR ALL LAYERS
    PRINT BUDGET

 HEAD WILL BE SAVED ON UNIT   51 AT END OF TIME STEP  100, STRESS PERIOD    1
1
  VOLUMETRIC BUDGET FOR ENTIRE MODEL AT END OF TIME STEP  100, STRESS PERIOD   1
  ------------------------------------------------------------------------------

     CUMULATIVE VOLUMES      L**3       RATES FOR THIS TIME STEP      L**3/T
     ------------------                 ------------------------

           IN:                                      IN:
           ---                                      ---
             STORAGE =           0.0000               STORAGE =           0.0000
       CONSTANT HEAD =           0.0000         CONSTANT HEAD =           0.0000
     HEAD DEP BOUNDS =           0.0000       HEAD DEP BOUNDS =           0.0000
            RECHARGE = 30417086464.0000              RECHARGE =      832773.5625

            TOTAL IN = 30417086464.0000              TOTAL IN =      832773.5625

          OUT:                                     OUT:
          ----                                     ----
             STORAGE =           0.0000               STORAGE =           0.0000
       CONSTANT HEAD =           0.0000         CONSTANT HEAD =           0.0000
     HEAD DEP BOUNDS = 30417086464.0000       HEAD DEP BOUNDS =      832773.5625
            RECHARGE =           0.0000              RECHARGE =           0.0000

           TOTAL OUT = 30417086464.0000             TOTAL OUT =      832773.5625

            IN - OUT =           0.0000              IN - OUT =           0.0000

 PERCENT DISCREPANCY =           0.00     PERCENT DISCREPANCY =           0.00






         TIME SUMMARY AT END OF TIME STEP  100 IN STRESS PERIOD    1
                    SECONDS     MINUTES      HOURS       DAYS        YEARS
                    -----------------------------------------------------------
   TIME STEP LENGTH 3.15576E+07 5.25960E+05  8766.0      365.25      1.0000    
 STRESS PERIOD TIME 3.15576E+09 5.25960E+07 8.76600E+05  36525.      100.00    
         TOTAL TIME 3.15576E+09 5.25960E+07 8.76600E+05  36525.      100.00    
1

 HEAD AND DRAWDOWN OBSERVATIONS
 OBSERVATION       OBSERVED           SIMULATED
   NAME              VALUE              VALUE             DIFFERENCE
 --------------------------------------------------------------------
 Obs_0          5.00000007451E-02   -999.00000000    
 Obs_1          5.00000007451E-02   -999.00000000    
 Obs_2          5.00000007451E-02   -999.00000000    
 Obs_3          5.00000007451E-02   0.39409369230      -0.34409368038    
 Obs_4          5.00000007451E-02   0.56988584995      -0.51988583803    
 Obs_5          5.00000007451E-02   0.66072952747      -0.61072951555    
 Obs_6          5.00000007451E-02   0.43596535921      -0.38596534729    
 Obs_7          5.00000007451E-02   0.30328959227      -0.25328958035    
 Obs_8          5.00000007451E-02   0.23706537485      -0.18706537783    
 Obs_9          5.00000007451E-02   -999.00000000    
 Obs_10         5.00000007451E-02   -999.00000000    
 Obs_11         5.00000007451E-02   -999.00000000    
 Obs_12         5.00000007451E-02   -999.00000000    
 Obs_13         5.00000007451E-02   0.75364863873      -0.70364862680    
 Obs_14         5.00000007451E-02    1.4383403063       -1.3883403540    
 Obs_15         5.00000007451E-02    2.2994315624       -2.2494316101    
 Obs_16         5.00000007451E-02    1.6345349550       -1.5845350027    
 Obs_17         5.00000007451E-02   0.64666193724      -0.59666192532    
 Obs_18         5.00000007451E-02   0.43630856276      -0.38630855083    
 Obs_19         5.00000007451E-02   -999.00000000    
 Obs_20          5.5000000000        3.4317889214        2.0682110786    
 Obs_21         5.00000007451E-02   -999.00000000    
 Obs_22         5.00000007451E-02   -999.00000000    
 Obs_23         5.00000007451E-02   -999.00000000    
 Obs_24         5.00000007451E-02    1.4860016108       -1.4360016584    
 Obs_25         5.00000007451E-02    3.3056945801       -3.2556946278    
 Obs_26         5.00000007451E-02    1.3705599308       -1.3205599785    
 Obs_27         5.00000007451E-02   0.88024395704      -0.83024394512    
 Obs_28         5.00000007451E-02   -999.00000000    
 Obs_29         5.00000007451E-02   -999.00000000    
 Obs_30         5.00000007451E-02   -999.00000000    
 Obs_31         5.00000007451E-02   -999.00000000    
 Obs_32         5.00000007451E-02    2.4344978333       -2.3844978809    
 Obs_33         5.00000007451E-02    2.7842960358       -2.7342960835    
 Obs_34         5.00000007451E-02    1.9377667904       -1.8877668381    
 Obs_35         5.00000007451E-02   -999.00000000    
 Obs_36         5.00000007451E-02   -999.00000000    
 Obs_37         5.00000007451E-02   -999.00000000    
 Obs_38         5.00000007451E-02    1.6072493792       -1.5572494268    
 Obs_39         5.00000007451E-02    3.5801963806       -3.5301964283    
 Obs_40         5.00000007451E-02    3.7958991528       -3.7458992004    
 Obs_41         5.00000007451E-02    2.9809472561       -2.9309473038    
 Obs_42         0.20000000298        5.9161996841       -5.7161998749    
 Obs_43         0.40000000596        5.6458997726       -5.2458996773    
 Obs_44         0.30000001192        4.7081856728       -4.4081854820    
 Obs_45         0.60000002384        5.0491747856       -4.4491748810    
 Obs_46          2.2999999523        8.4759244919       -6.1759243011    
 Obs_47          2.5999999046        7.7132520676       -5.1132521629    
 Obs_48          3.5000000000        8.8918304443       -5.3918304443    
 Obs_49         5.00000007451E-02   -999.00000000    
 Obs_50         5.00000007451E-02   -999.00000000    
 Obs_51         5.00000007451E-02    1.5994206667       -1.5494207144    
 Obs_52         5.00000007451E-02    3.8470921516       -3.7970921993    
 Obs_53          1.2000000477        7.1575207710       -5.9575204849    
 Obs_54         5.00000007451E-02    3.6809620857       -3.6309621334    
 Obs_55          3.5999999046        9.4220743179       -5.8220744133    
 Obs_56          2.4298999310        7.7882132530       -5.3583135605    
 Obs_57         5.00000007451E-02   -999.00000000    
 Obs_58         5.00000007451E-02   0.96220630407      -0.91220629215    
 Obs_59         5.00000007451E-02    1.4745599031       -1.4245599508    
 Obs_60         5.00000007451E-02    3.6279349327       -3.5779349804    
 Obs_61         5.00000007451E-02    4.2136855125       -4.1636853218    
 Obs_62          1.8999999762        7.5439434052       -5.6439433098    
 Obs_63          1.2999999523        9.6874933243       -8.3874931335    
 Obs_64         0.89999997616        7.5715484619       -6.6715483665    
 Obs_65          44.700000763        12.312287331        32.387714386    
 Obs_66          2.5999999046        7.5676693916       -4.9676694870    
 Obs_67          1.7000000477        7.5502514839       -5.8502511978    
 Obs_68          3.0000000000        12.260869026       -9.2608690262    
 Obs_69          1.7999999523        7.7443776131       -5.9443778992    
 Obs_70         5.00000007451E-02   -999.00000000    
 Obs_71         5.00000007451E-02   0.92931634188      -0.87931632996    
 Obs_72         5.00000007451E-02    1.5014898777       -1.4514899254    
 Obs_73         5.00000007451E-02    4.2567915916       -4.2067914009    
 Obs_74          5.9000000954        13.526782990       -7.6267828941    
 Obs_75          19.200000763        12.647035599        6.5529651642    
 Obs_76         5.00000007451E-02   -999.00000000    
 Obs_77          8.0000000000        14.011940002       -6.0119400024    
 Obs_78          8.1999998093        13.016821861       -4.8168220520    
 Obs_79          5.7500000000        12.755427361       -7.0054273605    
 Obs_80          34.200000763        14.091003418        20.108997345    
 Obs_81          3.2000000477        12.284093857       -9.0840940475    
 Obs_82          16.853000641        14.555007935        2.2979927063    
 Obs_83          25.399999619        13.002210617        12.397789001    
 Obs_84          1.7999999523        12.029269218       -10.229269028    
 Obs_85          8.8000001907        12.107107162       -3.3071069717    
 Obs_86         0.85000002384        10.499422073       -9.6494216919    
 Obs_87         0.89999997616        10.248054504       -9.3480548859    
 Obs_88         0.60000002384        5.1703562737       -4.5703563690    
 Obs_89          20.299999237        12.987693787        7.3123054504    
 Obs_90          1.7999999523        10.763798714       -8.9637985229    
 Obs_91          1.6276999712        10.185647011       -8.5579471588    
 Obs_92         0.30000001192        8.4102106094       -8.1102104187    
 Obs_93         5.00000007451E-02   0.80303037167      -0.75303035975    
 Obs_94         5.00000007451E-02    1.2492318153       -1.1992318630    
 Obs_95         5.00000007451E-02    2.4761934280       -2.4261934757    
 Obs_96         5.00000007451E-02    7.9607234001       -7.9107232094    
 Obs_97         5.00000007451E-02    3.9880836010       -3.9380836487    
 Obs_98         5.00000007451E-02   -999.00000000    
 Obs_99         0.50000000000        5.9475307465       -5.4475307465    
 Obs_100         1.0000000000        8.1898851395       -7.1898851395    
 Obs_101         62.500000000        18.987360001        43.512641907    
 Obs_102        5.00000007451E-02    1.0774713755       -1.0274714231    
 Obs_103        5.00000007451E-02    2.2605681419       -2.2105681896    
 Obs_104         15.800000191        12.332879066        3.4671211243    
 Obs_105        5.00000007451E-02   -999.00000000    
 Obs_106        5.00000007451E-02   -999.00000000    
 Obs_107        5.00000007451E-02   -999.00000000    
 Obs_108         1.2000000477        8.8857717514       -7.6857719421    
 Obs_109         7.3000001907        10.130534172       -2.8305339813    
 Obs_110         7.3000001907        11.559803009       -4.2598028183    
 Obs_111         9.8000001907        13.171220779       -3.3712205887    
 Obs_112         16.466699600        14.653990746        1.8127088547    
 Obs_113         1.2000000477        7.1190352440       -5.9190349579    
 Obs_114         3.0000000000        8.6101694107       -5.6101694107    
 Obs_115        5.00000007451E-02    1.5793325901       -1.5293326378    
 Obs_116         6.6500000954        9.0242462158       -2.3742461205    
 Obs_117        5.00000007451E-02    3.0169970989       -2.9669971466    
 Obs_118        5.00000007451E-02    2.7218670845       -2.6718671322    
 Obs_119        5.00000007451E-02   -999.00000000    
 Obs_120        5.00000007451E-02   -999.00000000    
 Obs_121        5.00000007451E-02   -999.00000000    
 Obs_122         2.7000000477        7.6347284317       -4.9347286224    
 Obs_123         6.0999999046        6.1738853455      -7.38854408264E-02
 Obs_124        0.10000000149        4.7739567757       -4.6739568710    
 Obs_125        5.00000007451E-02    1.9610289335       -1.9110289812    
 Obs_126        5.00000007451E-02    1.2774711847       -1.2274712324    
 Obs_127        5.00000007451E-02    1.3100804090       -1.2600804567    
 Obs_128        5.00000007451E-02   -999.00000000    
 Obs_129        5.00000007451E-02   -999.00000000    
 Obs_130        5.00000007451E-02   -999.00000000    
 Obs_131         8.1000003815        4.4262442589        3.6737561226    
 Obs_132         8.1999998093        4.3740825653        3.8259172440    
 Obs_133        5.00000007451E-02    1.5686714649       -1.5186715126    
 Obs_134         4.3000001907        4.4963331223      -0.19633293152    
 Obs_135         5.5666999817        4.4313678741        1.1353321075    
 Obs_136        5.00000007451E-02    1.2911062241       -1.2411062717    
 Obs_137        5.00000007451E-02   0.67260110378      -0.62260109186    
 Obs_138        5.00000007451E-02   -999.00000000    
 Obs_139        5.00000007451E-02   -999.00000000    
 Obs_140        5.00000007451E-02   -999.00000000    
 Obs_141        5.00000007451E-02   -999.00000000    
 Obs_142         5.5000000000        4.4242095947        1.0757904053    
 Obs_143         7.3000001907        3.3124711514        3.9875290394    
 Obs_144         6.0000000000        3.0889344215        2.9110655785    
 Obs_145        5.00000007451E-02    1.2888183594       -1.2388184071    
 Obs_146        5.00000007451E-02    3.0163025856       -2.9663026333    
 Obs_147        5.00000007451E-02    1.1105091572       -1.0605092049    
 Obs_148        5.00000007451E-02   0.59489786625      -0.54489785433    
 Obs_149        5.00000007451E-02   -999.00000000    
 Obs_150        5.00000007451E-02   -999.00000000    
 Obs_151        5.00000007451E-02   -999.00000000    
 Obs_152        5.00000007451E-02   -999.00000000    
 Obs_153        5.00000007451E-02    1.0841586590       -1.0341587067    
 Obs_154        5.00000007451E-02    1.7346079350       -1.6846079826    
 Obs_155        5.00000007451E-02   0.74086487293      -0.69086486101    
 Obs_156        5.00000007451E-02   -999.00000000    
 Obs_157        5.00000007451E-02   -999.00000000    
 Obs_158        5.00000007451E-02   -999.00000000    
 Obs_159        5.00000007451E-02   -999.00000000    
 Obs_160        5.00000007451E-02   -999.00000000    
 Obs_161        5.00000007451E-02   0.81355023384      -0.76355022192    
 Obs_162        5.00000007451E-02   0.91715949774      -0.86715948582    
 Obs_163        5.00000007451E-02   0.40950241685      -0.35950240493    
 Obs_164        5.00000007451E-02   -999.00000000    
 Obs_165        5.00000007451E-02   -999.00000000    
 Obs_166        5.00000007451E-02   -999.00000000    
 Obs_167        5.00000007451E-02   -999.00000000    
 Obs_168        5.00000007451E-02   -999.00000000    
 Obs_169        5.00000007451E-02   0.51809203625      -0.46809202433    
 Obs_170        5.00000007451E-02    1.1383295059       -1.0883295536    
 Obs_171        5.00000007451E-02   0.26779466867      -0.21779467165    
 Obs_172        5.00000007451E-02   -999.00000000    
 Obs_173        5.00000007451E-02   -999.00000000    
 Obs_174        5.00000007451E-02   -999.00000000    
 Obs_175        5.00000007451E-02   -999.00000000    
 Obs_176        5.00000007451E-02   -999.00000000    
 Obs_177         2.7000000477        1.3090342283        1.3909658194    
 Obs_178         5.3000001907        1.0881153345        4.2118849754    
 Obs_179        5.00000007451E-02   0.47989147902      -0.42989146709    
 Obs_180        5.00000007451E-02   0.47477307916      -0.42477306724    
 Obs_181        5.00000007451E-02   0.21236571670      -0.16236571968    
 Obs_182        5.00000007451E-02   -999.00000000    
 Obs_183        5.00000007451E-02   -999.00000000    
 Obs_184        5.00000007451E-02   -999.00000000    
 Obs_185        5.00000007451E-02   -999.00000000    
 Obs_186        5.00000007451E-02   -999.00000000    
 Obs_187         3.0999999046       0.84748929739        2.2525105476    
 Obs_188        5.00000007451E-02   0.37099301815      -0.32099300623    
 Obs_189         3.0000000000       0.74550759792        2.2544922829    
 Obs_190        5.00000007451E-02   0.28654643893      -0.23654644191    
 Obs_191        5.00000007451E-02   0.15433786809      -0.10433787107    
 Obs_192        5.00000007451E-02   -999.00000000    
 Obs_193        5.00000007451E-02   -999.00000000    
 Obs_194        5.00000007451E-02   -999.00000000    
 Obs_195        5.00000007451E-02   -999.00000000    
 Obs_196        5.00000007451E-02   -999.00000000    
 Obs_197         5.6999998093       0.69607907534        5.0039205551    
 Obs_198        5.00000007451E-02   0.24459232390      -0.19459232688    
 Obs_199        5.00000007451E-02   0.31956195831      -0.26956194639    
 Obs_200        5.00000007451E-02   0.29889816046      -0.24889816344    
 Obs_201        5.00000007451E-02   0.19815795124      -0.14815795422    
 Obs_202        5.00000007451E-02   -999.00000000    
 Obs_203        5.00000007451E-02   -999.00000000    
 Obs_204        5.00000007451E-02   -999.00000000    
 Obs_205        5.00000007451E-02   -999.00000000    
 Obs_206        5.00000007451E-02   -999.00000000    
 Obs_207        5.00000007451E-02   -999.00000000    

 HEAD/DRAWDOWN SUM OF SQUARED DIFFERENCE:    5.73629E+03

 Run end date and time (yyyy/mm/dd hh:mm:ss): 2019/09/12 16:37:23
 Elapsed run time:  0.355 Seconds

